REMARK VINA RESULT:    -9.443      0.000      0.000
REMARK INTER + INTRA:         -11.921
REMARK INTER:                  -9.443
REMARK INTRA:                  -2.478
REMARK UNBOUND:                -2.478
REMARK  0 active torsions:
REMARK  status: ('A' for Active; 'I' for Inactive)
REMARK       I    between atoms: C3_3  and  O3_21 
REMARK       I    between atoms: C6_6  and  C7_7 
REMARK       I    between atoms: C8_8  and  C9_9 
REMARK       I    between atoms: C10_10  and  C11_11 
REMARK       I    between atoms: C12_12  and  C13_13 
REMARK       I    between atoms: C14_14  and  C15_15 
REMARK       I    between atoms: C23_25  and  O23_43 
REMARK       I    between atoms: C26_28  and  C27_29 
REMARK       I    between atoms: C28_30  and  C29_31 
REMARK       I    between atoms: C30_32  and  C31_33 
REMARK       I    between atoms: C32_34  and  C33_35 
REMARK       I    between atoms: C34_36  and  C35_37 
ROOT
HETATM    1  C1  VFQ Z1621     -34.222 127.140   6.720  1.00 27.99    -0.018 C 
HETATM    2  C2  VFQ Z1621     -33.769 126.796   5.295  1.00 27.99     0.045 C 
HETATM    3  C3  VFQ Z1621     -32.728 127.732   4.697  1.00 27.99     0.123 C 
HETATM    4  C4  VFQ Z1621     -31.709 128.068   5.769  1.00 27.99     0.066 C 
HETATM    5  C5  VFQ Z1621     -32.454 128.876   6.791  1.00 27.99    -0.074 C 
HETATM    6  C6  VFQ Z1621     -33.564 128.365   7.338  1.00 27.99    -0.048 C 
HETATM    7  C7  VFQ Z1621     -34.319 129.076   8.395  1.00 27.99     0.009 C 
HETATM    8  C8  VFQ Z1621     -34.406 130.410   8.311  1.00 27.99     0.007 C 
HETATM    9  C9  VFQ Z1621     -35.355 131.124   9.199  1.00 27.99    -0.062 C 
HETATM   10  C10 VFQ Z1621     -35.847 132.301   8.756  1.00 27.99     0.007 C 
HETATM   11  C11 VFQ Z1621     -36.911 133.038   9.443  1.00 27.99     0.001 C 
HETATM   12  C12 VFQ Z1621     -37.519 134.054   8.831  1.00 27.99     0.007 C 
HETATM   13  C13 VFQ Z1621     -38.659 134.764   9.461  1.00 27.99    -0.062 C 
HETATM   14  C14 VFQ Z1621     -39.315 135.677   8.713  1.00 27.99     0.007 C 
HETATM   15  C15 VFQ Z1621     -40.474 136.446   9.176  1.00 27.99     0.001 C 
HETATM   16  C16 VFQ Z1621     -33.776 125.998   7.636  1.00 27.99     0.020 C 
HETATM   17  C17 VFQ Z1621     -35.746 127.247   6.728  1.00 27.99     0.020 C 
HETATM   18  C18 VFQ Z1621     -31.517 129.781   7.542  1.00 27.99     0.044 C 
HETATM   19  C19 VFQ Z1621     -35.803 130.474  10.487  1.00 27.99     0.048 C 
HETATM   20  C20 VFQ Z1621     -39.042 134.410  10.875  1.00 27.99     0.048 C 
HETATM   21  O3  VFQ Z1621     -32.086 127.110   3.577  1.00 27.99    -0.395 OA
ATOM     22  H3  VFQ Z1621     -32.725 126.900   2.905  1.00  0.00     0.210 HD
HETATM   23  C21 VFQ Z1621     -49.908 145.207   9.774  1.00 19.54    -0.018 C 
HETATM   24  C22 VFQ Z1621     -50.844 145.964  10.713  1.00 19.54     0.045 C 
HETATM   25  C23 VFQ Z1621     -50.264 147.052  11.596  1.00 19.54     0.123 C 
HETATM   26  C24 VFQ Z1621     -48.982 146.566  12.222  1.00 19.54     0.066 C 
HETATM   27  C25 VFQ Z1621     -48.028 146.049  11.176  1.00 19.54    -0.074 C 
HETATM   28  C26 VFQ Z1621     -48.434 145.329  10.115  1.00 19.54    -0.048 C 
HETATM   29  C27 VFQ Z1621     -47.440 144.676   9.212  1.00 19.54     0.009 C 
HETATM   30  C28 VFQ Z1621     -46.911 143.466   9.441  1.00 19.54     0.007 C 
HETATM   31  C29 VFQ Z1621     -45.940 142.825   8.549  1.00 27.99    -0.062 C 
HETATM   32  C30 VFQ Z1621     -45.454 141.628   8.934  1.00 27.99     0.007 C 
HETATM   33  C31 VFQ Z1621     -44.439 140.882   8.192  1.00 27.99     0.001 C 
HETATM   34  C32 VFQ Z1621     -43.904 139.794   8.745  1.00 27.99     0.007 C 
HETATM   35  C33 VFQ Z1621     -42.808 139.054   8.086  1.00 27.99    -0.062 C 
HETATM   36  C34 VFQ Z1621     -42.193 138.099   8.817  1.00 27.99     0.007 C 
HETATM   37  C35 VFQ Z1621     -41.048 137.314   8.350  1.00 27.99     0.001 C 
HETATM   38  C36 VFQ Z1621     -50.076 145.752   8.363  1.00 19.54     0.020 C 
HETATM   39  C37 VFQ Z1621     -50.387 143.760   9.792  1.00 19.54     0.020 C 
HETATM   40  C38 VFQ Z1621     -46.588 146.399  11.383  1.00 19.54     0.044 C 
HETATM   41  C39 VFQ Z1621     -45.564 143.531   7.273  1.00 27.99     0.048 C 
HETATM   42  C40 VFQ Z1621     -42.400 139.436   6.688  1.00 27.99     0.048 C 
HETATM   43  O23 VFQ Z1621     -51.195 147.333  12.643  1.00 19.54    -0.395 OA
ATOM     44  H23 VFQ Z1621     -50.832 148.014  13.196  1.00  0.00     0.210 HD
ENDROOT
TORSDOF 12
