REMARK VINA RESULT:    -8.644      0.883     16.821
REMARK INTER + INTRA:         -10.946
REMARK INTER:                 -11.103
REMARK INTRA:                   0.157
REMARK UNBOUND:                -2.302
REMARK  0 active torsions:
REMARK  status: ('A' for Active; 'I' for Inactive)
REMARK       I    between atoms: C3_3  and  O3_21 
REMARK       I    between atoms: C6_6  and  C7_7 
REMARK       I    between atoms: C8_8  and  C9_9 
REMARK       I    between atoms: C10_10  and  C11_11 
REMARK       I    between atoms: C12_12  and  C13_13 
REMARK       I    between atoms: C14_14  and  C15_15 
REMARK       I    between atoms: C23_25  and  O23_43 
REMARK       I    between atoms: C26_28  and  C27_29 
REMARK       I    between atoms: C28_30  and  C29_31 
REMARK       I    between atoms: C30_32  and  C31_33 
REMARK       I    between atoms: C32_34  and  C33_35 
REMARK       I    between atoms: C34_36  and  C35_37 
ROOT
HETATM    1  C1  VFQ 1 316     -49.973 144.498  12.871  1.00 73.24    -0.018 C 
HETATM    2  C2  VFQ 1 316     -50.402 145.109  14.207  1.00 72.84     0.045 C 
HETATM    3  C3  VFQ 1 316     -49.507 146.201  14.780  1.00 72.53     0.123 C 
HETATM    4  C4  VFQ 1 316     -49.059 147.140  13.677  1.00 72.61     0.066 C 
HETATM    5  C5  VFQ 1 316     -48.324 146.355  12.624  1.00 72.68    -0.074 C 
HETATM    6  C6  VFQ 1 316     -48.790 145.178  12.203  1.00 72.79    -0.048 C 
HETATM    7  C7  VFQ 1 316     -48.136 144.500  11.057  1.00 71.90     0.009 C 
HETATM    8  C8  VFQ 1 316     -47.048 143.750  11.244  1.00 71.51     0.007 C 
HETATM    9  C9  VFQ 1 316     -46.357 143.048  10.142  1.00 70.48    -0.062 C 
HETATM   10  C10 VFQ 1 316     -45.307 142.271  10.449  1.00 69.46     0.007 C 
HETATM   11  C11 VFQ 1 316     -44.524 141.508   9.479  1.00 69.85     0.001 C 
HETATM   12  C12 VFQ 1 316     -43.533 140.766   9.972  1.00 72.15     0.007 C 
HETATM   13  C13 VFQ 1 316     -42.642 139.912   9.158  1.00 73.74    -0.062 C 
HETATM   14  C14 VFQ 1 316     -41.858 139.031   9.806  1.00 74.04     0.007 C 
HETATM   15  C15 VFQ 1 316     -40.950 138.111   9.123  1.00 74.62     0.001 C 
HETATM   16  C16 VFQ 1 316     -51.162 144.558  11.921  1.00 72.68     0.020 C 
HETATM   17  C17 VFQ 1 316     -49.593 143.042  13.112  1.00 73.05     0.020 C 
HETATM   18  C18 VFQ 1 316     -47.274 147.086  11.838  1.00 72.13     0.044 C 
HETATM   19  C19 VFQ 1 316     -46.814 143.207   8.722  1.00 70.45     0.048 C 
HETATM   20  C20 VFQ 1 316     -42.611 140.029   7.660  1.00 72.89     0.048 C 
HETATM   21  O3  VFQ 1 316     -50.236 146.945  15.766  1.00 71.04    -0.395 OA
ATOM     22  H3  VFQ 1 316     -50.517 146.355  16.457  1.00  0.00     0.210 HD
HETATM   23  C21 VFQ 1 316     -33.911 127.820   7.115  1.00 70.34    -0.018 C 
HETATM   24  C22 VFQ 1 316     -32.980 126.768   6.548  1.00 70.34     0.045 C 
HETATM   25  C23 VFQ 1 316     -31.889 127.263   5.613  1.00 70.34     0.123 C 
HETATM   26  C24 VFQ 1 316     -31.199 128.514   6.125  1.00 70.34     0.066 C 
HETATM   27  C25 VFQ 1 316     -32.012 129.431   6.991  1.00 70.34    -0.074 C 
HETATM   28  C26 VFQ 1 316     -33.198 129.095   7.506  1.00 70.34    -0.048 C 
HETATM   29  C27 VFQ 1 316     -33.849 129.952   8.526  1.00 70.34     0.009 C 
HETATM   30  C28 VFQ 1 316     -34.741 130.886   8.216  1.00 70.34     0.007 C 
HETATM   31  C29 VFQ 1 316     -35.399 131.715   9.241  1.00 94.72    -0.062 C 
HETATM   32  C30 VFQ 1 316     -36.297 132.620   8.830  1.00 91.32     0.007 C 
HETATM   33  C31 VFQ 1 316     -37.042 133.496   9.732  1.00 87.88     0.001 C 
HETATM   34  C32 VFQ 1 316     -37.812 134.416   9.157  1.00 84.19     0.007 C 
HETATM   35  C33 VFQ 1 316     -38.658 135.369   9.898  1.00 80.79    -0.062 C 
HETATM   36  C34 VFQ 1 316     -39.354 136.284   9.200  1.00 78.84     0.007 C 
HETATM   37  C35 VFQ 1 316     -40.244 137.243   9.851  1.00 76.79     0.001 C 
HETATM   38  C36 VFQ 1 316     -34.517 127.223   8.378  1.00 70.34     0.020 C 
HETATM   39  C37 VFQ 1 316     -35.018 128.091   6.106  1.00 70.34     0.020 C 
HETATM   40  C38 VFQ 1 316     -31.376 130.764   7.257  1.00 70.34     0.044 C 
HETATM   41  C39 VFQ 1 316     -35.082 131.540  10.695  1.00 95.37     0.048 C 
HETATM   42  C40 VFQ 1 316     -38.753 135.293  11.392  1.00 90.13     0.048 C 
HETATM   43  O23 VFQ 1 316     -32.391 127.482   4.293  1.00 70.34    -0.395 OA
ATOM     44  H23 VFQ 1 316     -31.708 127.791   3.709  1.00  0.00     0.210 HD
ENDROOT
TORSDOF 12
