REMARK VINA RESULT:    -9.974      0.000      0.000
REMARK INTER + INTRA:         -10.320
REMARK INTER:                  -9.974
REMARK INTRA:                  -0.346
REMARK UNBOUND:                -0.346
REMARK  0 active torsions:
REMARK  status: ('A' for Active; 'I' for Inactive)
REMARK       I    between atoms: C3_3  and  O3_21 
REMARK       I    between atoms: C6_6  and  C7_7 
REMARK       I    between atoms: C8_8  and  C9_9 
REMARK       I    between atoms: C10_10  and  C11_11 
REMARK       I    between atoms: C12_12  and  C13_13 
REMARK       I    between atoms: C14_14  and  C15_15 
REMARK       I    between atoms: C23_25  and  O23_43 
REMARK       I    between atoms: C26_28  and  C27_29 
REMARK       I    between atoms: C28_30  and  C29_31 
REMARK       I    between atoms: C30_32  and  C31_33 
REMARK       I    between atoms: C32_34  and  C33_35 
REMARK       I    between atoms: C34_36  and  C35_37 
ROOT
HETATM    1  C1  VFQ D3620     -34.184 128.390   6.881  1.00 21.49    -0.018 C 
HETATM    2  C2  VFQ D3620     -33.239 127.888   5.766  1.00 21.50     0.045 C 
HETATM    3  C3  VFQ D3620     -31.831 128.481   5.646  1.00 22.37     0.123 C 
HETATM    4  C4  VFQ D3620     -31.336 129.249   6.874  1.00 21.17     0.066 C 
HETATM    5  C5  VFQ D3620     -32.327 129.879   7.797  1.00 19.70    -0.074 C 
HETATM    6  C6  VFQ D3620     -33.658 129.506   7.826  1.00 20.41    -0.048 C 
HETATM    7  C7  VFQ D3620     -34.632 130.132   8.742  1.00 19.41     0.009 C 
HETATM    8  C8  VFQ D3620     -35.232 131.324   8.612  1.00 18.90     0.007 C 
HETATM    9  C9  VFQ D3620     -36.085 132.001   9.592  1.00 20.60    -0.062 C 
HETATM   10  C10 VFQ D3620     -36.678 133.153   9.212  1.00 18.78     0.007 C 
HETATM   11  C11 VFQ D3620     -37.555 133.966   9.998  1.00 19.97     0.001 C 
HETATM   12  C12 VFQ D3620     -38.202 134.989   9.413  1.00 23.02     0.007 C 
HETATM   13  C13 VFQ D3620     -39.165 135.921  10.001  1.00 23.57    -0.062 C 
HETATM   14  C14 VFQ D3620     -39.762 136.803   9.171  1.00 23.43     0.007 C 
HETATM   15  C15 VFQ D3620     -40.788 137.753   9.491  1.00 24.57     0.001 C 
HETATM   16  C16 VFQ D3620     -34.473 127.114   7.695  1.00 19.84     0.020 C 
HETATM   17  C17 VFQ D3620     -35.502 128.841   6.200  1.00 19.63     0.020 C 
HETATM   18  C18 VFQ D3620     -31.603 130.898   8.602  1.00 19.29     0.044 C 
HETATM   19  C19 VFQ D3620     -36.287 131.346  10.940  1.00 18.57     0.048 C 
HETATM   20  C20 VFQ D3620     -39.471 135.785  11.461  1.00 22.43     0.048 C 
HETATM   21  O3  VFQ D3620     -30.900 127.471   5.297  1.00 22.38    -0.395 OA
ATOM     22  H3  VFQ D3620     -30.026 127.839   5.222  1.00  0.00     0.210 HD
HETATM   23  C21 VFQ D3620     -50.826 145.321   9.872  1.00 26.49    -0.018 C 
HETATM   24  C22 VFQ D3620     -51.820 146.216  10.607  1.00 26.49     0.045 C 
HETATM   25  C23 VFQ D3620     -51.320 147.576  11.066  1.00 26.49     0.123 C 
HETATM   26  C24 VFQ D3620     -49.906 147.460  11.596  1.00 26.49     0.066 C 
HETATM   27  C25 VFQ D3620     -49.050 146.958  10.471  1.00 26.49    -0.074 C 
HETATM   28  C26 VFQ D3620     -49.430 145.908   9.728  1.00 26.49    -0.048 C 
HETATM   29  C27 VFQ D3620     -48.476 145.339   8.733  1.00 26.49     0.009 C 
HETATM   30  C28 VFQ D3620     -47.633 144.353   9.043  1.00 26.49     0.007 C 
HETATM   31  C29 VFQ D3620     -46.637 143.732   8.124  1.00 31.15    -0.062 C 
HETATM   32  C30 VFQ D3620     -45.852 142.749   8.615  1.00 29.00     0.007 C 
HETATM   33  C31 VFQ D3620     -44.842 142.028   7.902  1.00 26.88     0.001 C 
HETATM   34  C32 VFQ D3620     -44.095 141.106   8.518  1.00 27.02     0.007 C 
HETATM   35  C33 VFQ D3620     -43.007 140.285   7.977  1.00 27.13    -0.062 C 
HETATM   36  C34 VFQ D3620     -42.387 139.433   8.824  1.00 25.88     0.007 C 
HETATM   37  C35 VFQ D3620     -41.309 138.530   8.535  1.00 25.96     0.001 C 
HETATM   38  C36 VFQ D3620     -51.370 145.096   8.474  1.00 26.49     0.020 C 
HETATM   39  C37 VFQ D3620     -50.793 143.984  10.601  1.00 26.49     0.020 C 
HETATM   40  C38 VFQ D3620     -47.778 147.707  10.208  1.00 26.49     0.044 C 
HETATM   41  C39 VFQ D3620     -46.551 144.242   6.714  1.00 30.08     0.048 C 
HETATM   42  C40 VFQ D3620     -42.650 140.456   6.529  1.00 24.80     0.048 C 
HETATM   43  O23 VFQ D3620     -52.185 148.072  12.092  1.00 26.49    -0.395 OA
ATOM     44  H23 VFQ D3620     -51.873 148.922  12.379  1.00  0.00     0.210 HD
ENDROOT
TORSDOF 12
