REMARK VINA RESULT:    -9.991      0.000      0.000
REMARK INTER + INTRA:         -12.207
REMARK INTER:                  -9.991
REMARK INTRA:                  -2.216
REMARK UNBOUND:                -2.216
REMARK  0 active torsions:
REMARK  status: ('A' for Active; 'I' for Inactive)
REMARK       I    between atoms: C3_3  and  O3_21 
REMARK       I    between atoms: C6_6  and  C7_7 
REMARK       I    between atoms: C8_8  and  C9_9 
REMARK       I    between atoms: C10_10  and  C11_11 
REMARK       I    between atoms: C12_12  and  C13_13 
REMARK       I    between atoms: C14_14  and  C15_15 
REMARK       I    between atoms: C23_25  and  O23_43 
REMARK       I    between atoms: C26_28  and  C27_29 
REMARK       I    between atoms: C28_30  and  C29_31 
REMARK       I    between atoms: C30_32  and  C31_33 
REMARK       I    between atoms: C32_34  and  C33_35 
REMARK       I    between atoms: C34_36  and  C35_37 
ROOT
HETATM    1  C1  VFQ 8 619     -34.221 127.020   6.600  1.00 35.06    -0.018 C 
HETATM    2  C2  VFQ 8 619     -34.154 126.981   5.073  1.00 35.06     0.045 C 
HETATM    3  C3  VFQ 8 619     -33.018 127.779   4.442  1.00 35.06     0.123 C 
HETATM    4  C4  VFQ 8 619     -31.917 128.025   5.457  1.00 35.06     0.066 C 
HETATM    5  C5  VFQ 8 619     -32.560 128.812   6.560  1.00 35.06    -0.074 C 
HETATM    6  C6  VFQ 8 619     -33.600 128.263   7.189  1.00 35.06    -0.048 C 
HETATM    7  C7  VFQ 8 619     -34.271 128.923   8.324  1.00 35.06     0.009 C 
HETATM    8  C8  VFQ 8 619     -34.437 130.241   8.218  1.00 35.06     0.007 C 
HETATM    9  C9  VFQ 8 619     -35.273 130.966   9.192  1.00 35.06    -0.062 C 
HETATM   10  C10 VFQ 8 619     -35.775 132.147   8.803  1.00 35.06     0.007 C 
HETATM   11  C11 VFQ 8 619     -36.713 132.934   9.591  1.00 35.06     0.001 C 
HETATM   12  C12 VFQ 8 619     -37.261 134.005   9.033  1.00 35.06     0.007 C 
HETATM   13  C13 VFQ 8 619     -38.277 134.805   9.727  1.00 35.06    -0.062 C 
HETATM   14  C14 VFQ 8 619     -38.927 135.716   8.991  1.00 35.06     0.007 C 
HETATM   15  C15 VFQ 8 619     -39.994 136.576   9.484  1.00 35.06     0.001 C 
HETATM   16  C16 VFQ 8 619     -33.421 125.850   7.162  1.00 35.06     0.020 C 
HETATM   17  C17 VFQ 8 619     -35.666 126.903   7.060  1.00 35.06     0.020 C 
HETATM   18  C18 VFQ 8 619     -31.606 129.785   7.207  1.00 35.06     0.044 C 
HETATM   19  C19 VFQ 8 619     -35.566 130.332  10.521  1.00 35.06     0.048 C 
HETATM   20  C20 VFQ 8 619     -38.536 134.538  11.179  1.00 35.06     0.048 C 
HETATM   21  O3  VFQ 8 619     -32.471 127.053   3.335  1.00 35.06    -0.395 OA
ATOM     22  H3  VFQ 8 619     -31.763 127.550   2.942  1.00  0.00     0.210 HD
HETATM   23  C21 VFQ 8 619     -49.754 144.596   9.971  1.00 48.43    -0.018 C 
HETATM   24  C22 VFQ 8 619     -50.754 145.397  10.792  1.00 44.61     0.045 C 
HETATM   25  C23 VFQ 8 619     -50.199 146.585  11.554  1.00 44.41     0.123 C 
HETATM   26  C24 VFQ 8 619     -48.870 146.244  12.183  1.00 41.53     0.066 C 
HETATM   27  C25 VFQ 8 619     -47.924 145.868  11.087  1.00 37.72    -0.074 C 
HETATM   28  C26 VFQ 8 619     -48.301 145.001  10.149  1.00 43.52    -0.048 C 
HETATM   29  C27 VFQ 8 619     -47.325 144.406   9.205  1.00 44.60     0.009 C 
HETATM   30  C28 VFQ 8 619     -46.567 143.366   9.532  1.00 43.22     0.007 C 
HETATM   31  C29 VFQ 8 619     -45.636 142.761   8.566  1.00 35.06    -0.062 C 
HETATM   32  C30 VFQ 8 619     -44.934 141.718   9.027  1.00 35.06     0.007 C 
HETATM   33  C31 VFQ 8 619     -43.948 140.966   8.269  1.00 35.06     0.001 C 
HETATM   34  C32 VFQ 8 619     -43.312 139.997   8.915  1.00 35.06     0.007 C 
HETATM   35  C33 VFQ 8 619     -42.266 139.178   8.289  1.00 35.06    -0.062 C 
HETATM   36  C34 VFQ 8 619     -41.641 138.288   9.076  1.00 35.06     0.007 C 
HETATM   37  C35 VFQ 8 619     -40.565 137.409   8.628  1.00 35.06     0.001 C 
HETATM   38  C36 VFQ 8 619     -50.032 144.807   8.494  1.00 47.48     0.020 C 
HETATM   39  C37 VFQ 8 619     -49.999 143.135  10.330  1.00 54.25     0.020 C 
HETATM   40  C38 VFQ 8 619     -46.578 146.511  11.094  1.00 37.77     0.044 C 
HETATM   41  C39 VFQ 8 619     -45.533 143.302   7.173  1.00 35.06     0.048 C 
HETATM   42  C40 VFQ 8 619     -41.949 139.406   6.842  1.00 35.06     0.048 C 
HETATM   43  O23 VFQ 8 619     -51.118 146.943  12.587  1.00 48.83    -0.395 OA
ATOM     44  H23 VFQ 8 619     -50.770 147.687  13.065  1.00  0.00     0.210 HD
ENDROOT
TORSDOF 12
