REMARK VINA RESULT:    -7.631      1.780     17.137
REMARK INTER + INTRA:         -10.693
REMARK INTER:                 -10.308
REMARK INTRA:                  -0.385
REMARK UNBOUND:                -3.062
REMARK  0 active torsions:
REMARK  status: ('A' for Active; 'I' for Inactive)
REMARK       I    between atoms: C3_3  and  O3_21 
REMARK       I    between atoms: C6_6  and  C7_7 
REMARK       I    between atoms: C8_8  and  C9_9 
REMARK       I    between atoms: C10_10  and  C11_11 
REMARK       I    between atoms: C12_12  and  C13_13 
REMARK       I    between atoms: C14_14  and  C15_15 
REMARK       I    between atoms: C23_25  and  O23_43 
REMARK       I    between atoms: C26_28  and  C27_29 
REMARK       I    between atoms: C28_30  and  C29_31 
REMARK       I    between atoms: C30_32  and  C31_33 
REMARK       I    between atoms: C32_34  and  C33_35 
REMARK       I    between atoms: C34_36  and  C35_37 
ROOT
HETATM    1  C1  VFQ J9621     -34.086 128.302   7.111  1.00 21.11    -0.018 C 
HETATM    2  C2  VFQ J9621     -33.353 127.688   5.905  1.00 20.11     0.045 C 
HETATM    3  C3  VFQ J9621     -31.914 128.101   5.597  1.00 19.41     0.123 C 
HETATM    4  C4  VFQ J9621     -31.327 129.210   6.482  1.00 18.39     0.066 C 
HETATM    5  C5  VFQ J9621     -32.160 129.958   7.469  1.00 18.34    -0.074 C 
HETATM    6  C6  VFQ J9621     -33.436 129.562   7.799  1.00 19.81    -0.048 C 
HETATM    7  C7  VFQ J9621     -34.302 130.222   8.801  1.00 19.02     0.009 C 
HETATM    8  C8  VFQ J9621     -35.034 131.331   8.579  1.00 17.97     0.007 C 
HETATM    9  C9  VFQ J9621     -35.911 132.034   9.520  1.00 18.85    -0.062 C 
HETATM   10  C10 VFQ J9621     -36.650 133.059   9.035  1.00 18.38     0.007 C 
HETATM   11  C11 VFQ J9621     -37.639 133.838   9.743  1.00 18.57     0.001 C 
HETATM   12  C12 VFQ J9621     -38.378 134.787   9.128  1.00 17.11     0.007 C 
HETATM   13  C13 VFQ J9621     -39.468 135.590   9.702  1.00 20.42    -0.062 C 
HETATM   14  C14 VFQ J9621     -40.105 136.466   8.892  1.00 20.50     0.007 C 
HETATM   15  C15 VFQ J9621     -41.223 137.309   9.242  1.00 20.22     0.001 C 
HETATM   16  C16 VFQ J9621     -34.192 127.124   8.112  1.00 19.56     0.020 C 
HETATM   17  C17 VFQ J9621     -35.507 128.629   6.608  1.00 18.49     0.020 C 
HETATM   18  C18 VFQ J9621     -31.350 131.065   8.034  1.00 16.89     0.044 C 
HETATM   19  C19 VFQ J9621     -35.979 131.519  10.930  1.00 14.61     0.048 C 
HETATM   20  C20 VFQ J9621     -39.833 135.362  11.151  1.00 17.59     0.048 C 
HETATM   21  O3  VFQ J9621     -31.067 126.966   5.606  1.00 18.27    -0.395 OA
ATOM     22  H3  VFQ J9621     -30.173 127.222   5.415  1.00  0.00     0.210 HD
HETATM   23  C21 VFQ J9621     -51.079 145.780  10.197  1.00 19.07    -0.018 C 
HETATM   24  C22 VFQ J9621     -52.007 146.403  11.257  1.00 18.69     0.045 C 
HETATM   25  C23 VFQ J9621     -51.418 147.496  12.146  1.00 19.88     0.123 C 
HETATM   26  C24 VFQ J9621     -49.942 147.268  12.513  1.00 19.59     0.066 C 
HETATM   27  C25 VFQ J9621     -49.060 146.618  11.494  1.00 18.61    -0.074 C 
HETATM   28  C26 VFQ J9621     -49.546 145.922  10.408  1.00 18.29    -0.048 C 
HETATM   29  C27 VFQ J9621     -48.639 145.295   9.423  1.00 19.20     0.009 C 
HETATM   30  C28 VFQ J9621     -47.939 144.139   9.546  1.00 18.47     0.007 C 
HETATM   31  C29 VFQ J9621     -46.913 143.608   8.638  1.00 19.55    -0.062 C 
HETATM   32  C30 VFQ J9621     -46.292 142.451   8.960  1.00 17.66     0.007 C 
HETATM   33  C31 VFQ J9621     -45.260 141.792   8.197  1.00 19.12     0.001 C 
HETATM   34  C32 VFQ J9621     -44.574 140.726   8.672  1.00 19.40     0.007 C 
HETATM   35  C33 VFQ J9621     -43.478 139.963   8.048  1.00 19.31    -0.062 C 
HETATM   36  C34 VFQ J9621     -42.889 138.995   8.781  1.00 17.72     0.007 C 
HETATM   37  C35 VFQ J9621     -41.777 138.173   8.391  1.00 19.92     0.001 C 
HETATM   38  C36 VFQ J9621     -51.477 146.350   8.820  1.00 17.04     0.020 C 
HETATM   39  C37 VFQ J9621     -51.489 144.297  10.251  1.00 20.18     0.020 C 
HETATM   40  C38 VFQ J9621     -47.655 146.889  11.891  1.00 19.93     0.044 C 
HETATM   41  C39 VFQ J9621     -46.566 144.436   7.429  1.00 18.53     0.048 C 
HETATM   42  C40 VFQ J9621     -43.045 140.360   6.662  1.00 15.86     0.048 C 
HETATM   43  O23 VFQ J9621     -52.203 147.660  13.318  1.00 19.51    -0.395 OA
ATOM     44  H23 VFQ J9621     -51.836 148.339  13.870  1.00  0.00     0.210 HD
ENDROOT
TORSDOF 12
