REMARK VINA RESULT:   -11.917      0.000      0.000
REMARK INTER + INTRA:         -12.649
REMARK INTER:                 -11.917
REMARK INTRA:                  -0.731
REMARK UNBOUND:                -0.731
REMARK  0 active torsions:
REMARK  status: ('A' for Active; 'I' for Inactive)
REMARK       I    between atoms: C3_3  and  O3_21 
REMARK       I    between atoms: C6_6  and  C7_7 
REMARK       I    between atoms: C8_8  and  C9_9 
REMARK       I    between atoms: C10_10  and  C11_11 
REMARK       I    between atoms: C12_12  and  C13_13 
REMARK       I    between atoms: C14_14  and  C15_15 
REMARK       I    between atoms: C23_25  and  O23_43 
REMARK       I    between atoms: C26_28  and  C27_29 
REMARK       I    between atoms: C28_30  and  C29_31 
REMARK       I    between atoms: C30_32  and  C31_33 
REMARK       I    between atoms: C32_34  and  C33_35 
REMARK       I    between atoms: C34_36  and  C35_37 
ROOT
HETATM    1  C1  VFQ R 620     -34.210 128.370   6.882  1.00 48.79    -0.018 C 
HETATM    2  C2  VFQ R 620     -33.536 128.201   5.527  1.00 49.38     0.045 C 
HETATM    3  C3  VFQ R 620     -32.008 128.183   5.506  1.00 51.85     0.123 C 
HETATM    4  C4  VFQ R 620     -31.380 129.254   6.380  1.00 54.16     0.066 C 
HETATM    5  C5  VFQ R 620     -32.194 129.680   7.572  1.00 52.93    -0.074 C 
HETATM    6  C6  VFQ R 620     -33.499 129.406   7.736  1.00 53.44    -0.048 C 
HETATM    7  C7  VFQ R 620     -34.279 130.109   8.793  1.00 56.18     0.009 C 
HETATM    8  C8  VFQ R 620     -35.053 131.161   8.523  1.00 54.04     0.007 C 
HETATM    9  C9  VFQ R 620     -35.850 131.860   9.538  1.00 57.87    -0.062 C 
HETATM   10  C10 VFQ R 620     -36.478 132.961   9.136  1.00 59.37     0.007 C 
HETATM   11  C11 VFQ R 620     -37.333 133.777   9.981  1.00 54.77     0.001 C 
HETATM   12  C12 VFQ R 620     -37.995 134.704   9.313  1.00 53.15     0.007 C 
HETATM   13  C13 VFQ R 620     -38.946 135.626   9.929  1.00 52.91    -0.062 C 
HETATM   14  C14 VFQ R 620     -39.641 136.382   9.084  1.00 56.79     0.007 C 
HETATM   15  C15 VFQ R 620     -40.654 137.318   9.524  1.00 60.51     0.001 C 
HETATM   16  C16 VFQ R 620     -34.256 127.029   7.599  1.00 50.92     0.020 C 
HETATM   17  C17 VFQ R 620     -35.651 128.805   6.638  1.00 48.05     0.020 C 
HETATM   18  C18 VFQ R 620     -31.546 130.871   8.201  1.00 55.82     0.044 C 
HETATM   19  C19 VFQ R 620     -35.963 131.362  10.945  1.00 58.46     0.048 C 
HETATM   20  C20 VFQ R 620     -39.145 135.696  11.411  1.00 55.54     0.048 C 
HETATM   21  O3  VFQ R 620     -31.483 126.894   5.848  1.00 50.70    -0.395 OA
ATOM     22  H3  VFQ R 620     -30.534 126.882   5.834  1.00  0.00     0.210 HD
HETATM   23  C21 VFQ R 620     -50.522 144.548   9.836  1.00 19.54    -0.018 C 
HETATM   24  C22 VFQ R 620     -51.520 145.196  10.793  1.00 19.54     0.045 C 
HETATM   25  C23 VFQ R 620     -51.248 146.603  11.285  1.00 19.54     0.123 C 
HETATM   26  C24 VFQ R 620     -49.800 146.728  11.688  1.00 19.54     0.066 C 
HETATM   27  C25 VFQ R 620     -48.887 146.276  10.576  1.00 19.54    -0.074 C 
HETATM   28  C26 VFQ R 620     -49.158 145.212   9.801  1.00 19.54    -0.048 C 
HETATM   29  C27 VFQ R 620     -48.136 144.687   8.846  1.00 19.54     0.009 C 
HETATM   30  C28 VFQ R 620     -47.182 143.811   9.184  1.00 19.54     0.007 C 
HETATM   31  C29 VFQ R 620     -46.189 143.294   8.249  1.00 46.41    -0.062 C 
HETATM   32  C30 VFQ R 620     -45.642 142.143   8.611  1.00 51.67     0.007 C 
HETATM   33  C31 VFQ R 620     -44.637 141.430   7.860  1.00 48.57     0.001 C 
HETATM   34  C32 VFQ R 620     -44.014 140.545   8.610  1.00 50.80     0.007 C 
HETATM   35  C33 VFQ R 620     -42.954 139.688   8.095  1.00 54.69    -0.062 C 
HETATM   36  C34 VFQ R 620     -42.402 138.837   8.956  1.00 55.71     0.007 C 
HETATM   37  C35 VFQ R 620     -41.354 137.916   8.571  1.00 57.66     0.001 C 
HETATM   38  C36 VFQ R 620     -51.076 144.618   8.421  1.00 19.54     0.020 C 
HETATM   39  C37 VFQ R 620     -50.441 143.084  10.252  1.00 19.54     0.020 C 
HETATM   40  C38 VFQ R 620     -47.656 147.102  10.376  1.00 19.54     0.044 C 
HETATM   41  C39 VFQ R 620     -45.820 144.002   6.984  1.00 47.78     0.048 C 
HETATM   42  C40 VFQ R 620     -42.521 139.799   6.668  1.00 56.30     0.048 C 
HETATM   43  O23 VFQ R 620     -52.055 146.846  12.439  1.00 19.54    -0.395 OA
ATOM     44  H23 VFQ R 620     -51.885 147.728  12.747  1.00  0.00     0.210 HD
ENDROOT
TORSDOF 12
