REMARK VINA RESULT:    -9.449      2.265     16.936
REMARK INTER + INTRA:          -9.995
REMARK INTER:                  -3.325
REMARK INTRA:                  -6.671
REMARK UNBOUND:                -0.547
REMARK  0 active torsions:
REMARK  status: ('A' for Active; 'I' for Inactive)
REMARK       I    between atoms: C3_3  and  O3_21 
REMARK       I    between atoms: C6_6  and  C7_7 
REMARK       I    between atoms: C8_8  and  C9_9 
REMARK       I    between atoms: C10_10  and  C11_11 
REMARK       I    between atoms: C12_12  and  C13_13 
REMARK       I    between atoms: C14_14  and  C15_15 
REMARK       I    between atoms: C23_25  and  O23_43 
REMARK       I    between atoms: C26_28  and  C27_29 
REMARK       I    between atoms: C28_30  and  C29_31 
REMARK       I    between atoms: C30_32  and  C31_33 
REMARK       I    between atoms: C32_34  and  C33_35 
REMARK       I    between atoms: C34_36  and  C35_37 
ROOT
HETATM    1  C1  VFQ 6 321     -35.119 131.286   8.151  1.00 93.31    -0.018 C 
HETATM    2  C2  VFQ 6 321     -33.844 130.516   8.498  1.00 93.93     0.045 C 
HETATM    3  C3  VFQ 6 321     -33.443 130.524   9.967  1.00 93.98     0.123 C 
HETATM    4  C4  VFQ 6 321     -34.642 130.168  10.828  1.00 93.16     0.066 C 
HETATM    5  C5  VFQ 6 321     -35.751 131.153  10.572  1.00 92.19    -0.074 C 
HETATM    6  C6  VFQ 6 321     -36.003 131.613   9.341  1.00 91.50    -0.048 C 
HETATM    7  C7  VFQ 6 321     -37.195 132.463   9.113  1.00 98.60     0.009 C 
HETATM    8  C8  VFQ 6 321     -37.184 133.776   9.355  1.00 95.09     0.007 C 
HETATM    9  C9  VFQ 6 321     -38.386 134.604   9.120  1.00 91.76    -0.062 C 
HETATM   10  C10 VFQ 6 321     -38.402 135.872   9.552  1.00 98.95     0.007 C 
HETATM   11  C11 VFQ 6 321     -39.562 136.738   9.346  1.00 96.41     0.001 C 
HETATM   12  C12 VFQ 6 321     -39.520 137.986   9.805  1.00 94.60     0.007 C 
HETATM   13  C13 VFQ 6 321     -40.659 138.905   9.623  1.00 93.62    -0.062 C 
HETATM   14  C14 VFQ 6 321     -40.575 140.170  10.063  1.00 93.18     0.007 C 
HETATM   15  C15 VFQ 6 321     -41.698 141.086   9.881  1.00 93.10     0.001 C 
HETATM   16  C16 VFQ 6 321     -35.920 130.464   7.149  1.00 93.81     0.020 C 
HETATM   17  C17 VFQ 6 321     -34.719 132.607   7.504  1.00 92.50     0.020 C 
HETATM   18  C18 VFQ 6 321     -36.729 131.374  11.689  1.00 91.81     0.044 C 
HETATM   19  C19 VFQ 6 321     -39.574 134.031   8.405  1.00 91.57     0.048 C 
HETATM   20  C20 VFQ 6 321     -41.906 138.423   8.943  1.00 93.41     0.048 C 
HETATM   21  O3  VFQ 6 321     -32.407 129.557  10.182  1.00 94.06    -0.395 OA
ATOM     22  H3  VFQ 6 321     -32.158 129.562  11.099  1.00  0.00     0.210 HD
HETATM   23  C21 VFQ 6 321     -49.000 150.287   7.979  1.00 24.23    -0.018 C 
HETATM   24  C22 VFQ 6 321     -50.429 150.594   7.588  1.00 24.23     0.045 C 
HETATM   25  C23 VFQ 6 321     -51.252 151.192   8.697  1.00 24.23     0.123 C 
HETATM   26  C24 VFQ 6 321     -51.210 150.197   9.821  1.00 24.23     0.066 C 
HETATM   27  C25 VFQ 6 321     -49.804 150.037  10.300  1.00 24.23    -0.074 C 
HETATM   28  C26 VFQ 6 321     -48.796 150.307   9.479  1.00 24.23    -0.048 C 
HETATM   29  C27 VFQ 6 321     -47.424 150.244   9.969  1.00 24.23     0.009 C 
HETATM   30  C28 VFQ 6 321     -47.041 148.963   9.915  1.00 24.23     0.007 C 
HETATM   31  C29 VFQ 6 321     -45.706 148.494  10.327  1.00 92.38    -0.062 C 
HETATM   32  C30 VFQ 6 321     -45.444 147.185  10.193  1.00 92.82     0.007 C 
HETATM   33  C31 VFQ 6 321     -44.170 146.565  10.550  1.00 93.26     0.001 C 
HETATM   34  C32 VFQ 6 321     -44.052 145.268  10.274  1.00 94.43     0.007 C 
HETATM   35  C33 VFQ 6 321     -42.837 144.478  10.556  1.00 94.12    -0.062 C 
HETATM   36  C34 VFQ 6 321     -42.800 143.206  10.126  1.00 93.68     0.007 C 
HETATM   37  C35 VFQ 6 321     -41.649 142.335  10.343  1.00 93.36     0.001 C 
HETATM   38  C36 VFQ 6 321     -48.098 151.350   7.378  1.00 24.23     0.020 C 
HETATM   39  C37 VFQ 6 321     -48.684 148.953   7.333  1.00 24.23     0.020 C 
HETATM   40  C38 VFQ 6 321     -49.630 149.593  11.716  1.00 24.23     0.044 C 
HETATM   41  C39 VFQ 6 321     -44.682 149.443  10.877  1.00 91.58     0.048 C 
HETATM   42  C40 VFQ 6 321     -41.683 145.081  11.300  1.00 93.59     0.048 C 
HETATM   43  O23 VFQ 6 321     -52.600 151.309   8.263  1.00 24.23    -0.395 OA
ATOM     44  H23 VFQ 6 321     -53.119 151.686   8.963  1.00  0.00     0.210 HD
ENDROOT
TORSDOF 12
