REMARK VINA RESULT:    -5.603      2.363     16.813
REMARK INTER + INTRA:         -12.267
REMARK INTER:                 -11.899
REMARK INTRA:                  -0.368
REMARK UNBOUND:                -6.663
REMARK  0 active torsions:
REMARK  status: ('A' for Active; 'I' for Inactive)
REMARK       I    between atoms: C3_3  and  O3_21 
REMARK       I    between atoms: C6_6  and  C7_7 
REMARK       I    between atoms: C8_8  and  C9_9 
REMARK       I    between atoms: C10_10  and  C11_11 
REMARK       I    between atoms: C12_12  and  C13_13 
REMARK       I    between atoms: C14_14  and  C15_15 
REMARK       I    between atoms: C23_25  and  O23_43 
REMARK       I    between atoms: C26_28  and  C27_29 
REMARK       I    between atoms: C28_30  and  C29_31 
REMARK       I    between atoms: C30_32  and  C31_33 
REMARK       I    between atoms: C32_34  and  C33_35 
REMARK       I    between atoms: C34_36  and  C35_37 
ROOT
HETATM    1  C1  VFQ Y1621     -34.181 127.949   6.900  1.00 30.42    -0.018 C 
HETATM    2  C2  VFQ Y1621     -33.629 127.730   5.487  1.00 30.42     0.045 C 
HETATM    3  C3  VFQ Y1621     -32.351 128.472   5.119  1.00 30.42     0.123 C 
HETATM    4  C4  VFQ Y1621     -31.599 128.948   6.353  1.00 30.42     0.066 C 
HETATM    5  C5  VFQ Y1621     -32.562 129.770   7.156  1.00 30.42    -0.074 C 
HETATM    6  C6  VFQ Y1621     -33.683 129.201   7.593  1.00 30.42    -0.048 C 
HETATM    7  C7  VFQ Y1621     -34.564 129.840   8.593  1.00 30.42     0.009 C 
HETATM    8  C8  VFQ Y1621     -34.653 131.173   8.625  1.00 30.42     0.007 C 
HETATM    9  C9  VFQ Y1621     -35.708 131.790   9.460  1.00 30.42    -0.062 C 
HETATM   10  C10 VFQ Y1621     -36.131 133.016   9.097  1.00 30.42     0.007 C 
HETATM   11  C11 VFQ Y1621     -37.276 133.687   9.714  1.00 30.42     0.001 C 
HETATM   12  C12 VFQ Y1621     -37.795 134.762   9.125  1.00 30.42     0.007 C 
HETATM   13  C13 VFQ Y1621     -39.007 135.424   9.657  1.00 30.42    -0.062 C 
HETATM   14  C14 VFQ Y1621     -39.546 136.413   8.916  1.00 30.42     0.007 C 
HETATM   15  C15 VFQ Y1621     -40.757 137.152   9.285  1.00 30.42     0.001 C 
HETATM   16  C16 VFQ Y1621     -33.732 126.796   7.794  1.00 30.42     0.020 C 
HETATM   17  C17 VFQ Y1621     -35.698 127.928   6.823  1.00 30.42     0.020 C 
HETATM   18  C18 VFQ Y1621     -31.681 130.595   8.053  1.00 30.42     0.044 C 
HETATM   19  C19 VFQ Y1621     -36.324 131.006  10.598  1.00 30.42     0.048 C 
HETATM   20  C20 VFQ Y1621     -39.586 134.944  10.964  1.00 30.42     0.048 C 
HETATM   21  O3  VFQ Y1621     -31.550 127.551   4.384  1.00 30.42    -0.395 OA
ATOM     22  H3  VFQ Y1621     -30.753 128.014   4.155  1.00  0.00     0.210 HD
HETATM   23  C21 VFQ Y1621     -50.417 145.702   9.201  1.00 32.96    -0.018 C 
HETATM   24  C22 VFQ Y1621     -51.481 146.421  10.030  1.00 32.96     0.045 C 
HETATM   25  C23 VFQ Y1621     -51.314 146.333  11.541  1.00 32.96     0.123 C 
HETATM   26  C24 VFQ Y1621     -50.535 145.090  11.916  1.00 32.96     0.066 C 
HETATM   27  C25 VFQ Y1621     -49.187 145.183  11.262  1.00 32.96    -0.074 C 
HETATM   28  C26 VFQ Y1621     -49.138 145.432   9.950  1.00 32.96    -0.048 C 
HETATM   29  C27 VFQ Y1621     -47.924 145.197   9.157  1.00 32.96     0.009 C 
HETATM   30  C28 VFQ Y1621     -47.385 143.998   9.384  1.00 32.96     0.007 C 
HETATM   31  C29 VFQ Y1621     -46.288 143.476   8.544  1.00 30.42    -0.062 C 
HETATM   32  C30 VFQ Y1621     -45.773 142.281   8.905  1.00 30.42     0.007 C 
HETATM   33  C31 VFQ Y1621     -44.651 141.634   8.228  1.00 30.42     0.001 C 
HETATM   34  C32 VFQ Y1621     -44.133 140.525   8.756  1.00 30.42     0.007 C 
HETATM   35  C33 VFQ Y1621     -42.951 139.862   8.166  1.00 30.42    -0.062 C 
HETATM   36  C34 VFQ Y1621     -42.416 138.841   8.870  1.00 30.42     0.007 C 
HETATM   37  C35 VFQ Y1621     -41.216 138.100   8.476  1.00 30.42     0.001 C 
HETATM   38  C36 VFQ Y1621     -50.094 146.512   7.952  1.00 32.96     0.020 C 
HETATM   39  C37 VFQ Y1621     -50.947 144.331   8.796  1.00 32.96     0.020 C 
HETATM   40  C38 VFQ Y1621     -47.971 145.104  12.150  1.00 32.96     0.044 C 
HETATM   41  C39 VFQ Y1621     -45.822 144.280   7.356  1.00 30.42     0.048 C 
HETATM   42  C40 VFQ Y1621     -42.381 140.380   6.871  1.00 30.42     0.048 C 
HETATM   43  O23 VFQ Y1621     -52.600 146.261  12.164  1.00 32.96    -0.395 OA
ATOM     44  H23 VFQ Y1621     -52.496 146.207  13.107  1.00  0.00     0.210 HD
ENDROOT
TORSDOF 12
