REMARK VINA RESULT:    -7.674      0.000      0.000
REMARK INTER + INTRA:         -14.337
REMARK INTER:                  -7.674
REMARK INTRA:                  -6.663
REMARK UNBOUND:                -6.663
REMARK  0 active torsions:
REMARK  status: ('A' for Active; 'I' for Inactive)
REMARK       I    between atoms: C3_3  and  O3_21 
REMARK       I    between atoms: C6_6  and  C7_7 
REMARK       I    between atoms: C8_8  and  C9_9 
REMARK       I    between atoms: C10_10  and  C11_11 
REMARK       I    between atoms: C12_12  and  C13_13 
REMARK       I    between atoms: C14_14  and  C15_15 
REMARK       I    between atoms: C23_25  and  O23_43 
REMARK       I    between atoms: C26_28  and  C27_29 
REMARK       I    between atoms: C28_30  and  C29_31 
REMARK       I    between atoms: C30_32  and  C31_33 
REMARK       I    between atoms: C32_34  and  C33_35 
REMARK       I    between atoms: C34_36  and  C35_37 
ROOT
HETATM    1  C1  VFQ Y1621     -49.729 150.167   7.878  1.00 30.42    -0.018 C 
HETATM    2  C2  VFQ Y1621     -50.427 150.452   6.544  1.00 30.42     0.045 C 
HETATM    3  C3  VFQ Y1621     -51.808 149.840   6.340  1.00 30.42     0.123 C 
HETATM    4  C4  VFQ Y1621     -52.444 149.430   7.660  1.00 30.42     0.066 C 
HETATM    5  C5  VFQ Y1621     -51.474 148.510   8.339  1.00 30.42    -0.074 C 
HETATM    6  C6  VFQ Y1621     -50.257 148.963   8.632  1.00 30.42    -0.048 C 
HETATM    7  C7  VFQ Y1621     -49.326 148.232   9.516  1.00 30.42     0.009 C 
HETATM    8  C8  VFQ Y1621     -49.365 146.896   9.541  1.00 30.42     0.007 C 
HETATM    9  C9  VFQ Y1621     -48.280 146.172  10.241  1.00 30.42    -0.062 C 
HETATM   10  C10 VFQ Y1621     -48.027 144.913   9.831  1.00 30.42     0.007 C 
HETATM   11  C11 VFQ Y1621     -46.886 144.129  10.304  1.00 30.42     0.001 C 
HETATM   12  C12 VFQ Y1621     -46.552 143.013   9.658  1.00 30.42     0.007 C 
HETATM   13  C13 VFQ Y1621     -45.354 142.232  10.037  1.00 30.42    -0.062 C 
HETATM   14  C14 VFQ Y1621     -45.011 141.201   9.238  1.00 30.42     0.007 C 
HETATM   15  C15 VFQ Y1621     -43.842 140.344   9.455  1.00 30.42     0.001 C 
HETATM   16  C16 VFQ Y1621     -49.948 151.350   8.818  1.00 30.42     0.020 C 
HETATM   17  C17 VFQ Y1621     -48.238 150.040   7.613  1.00 30.42     0.020 C 
HETATM   18  C18 VFQ Y1621     -52.313 147.767   9.341  1.00 30.42     0.044 C 
HETATM   19  C19 VFQ Y1621     -47.454 146.881  11.291  1.00 30.42     0.048 C 
HETATM   20  C20 VFQ Y1621     -44.574 142.641  11.261  1.00 30.42     0.048 C 
HETATM   21  O3  VFQ Y1621     -52.600 150.842   5.708  1.00 30.42    -0.395 OA
ATOM     22  H3  VFQ Y1621     -53.460 150.461   5.580  1.00  0.00     0.210 HD
HETATM   23  C21 VFQ Y1621     -35.151 130.892   8.198  1.00 32.96    -0.018 C 
HETATM   24  C22 VFQ Y1621     -34.068 130.066   8.890  1.00 32.96     0.045 C 
HETATM   25  C23 VFQ Y1621     -34.037 130.156  10.410  1.00 32.96     0.123 C 
HETATM   26  C24 VFQ Y1621     -34.638 131.466  10.876  1.00 32.96     0.066 C 
HETATM   27  C25 VFQ Y1621     -36.060 131.510  10.395  1.00 32.96    -0.074 C 
HETATM   28  C26 VFQ Y1621     -36.294 131.280   9.099  1.00 32.96    -0.048 C 
HETATM   29  C27 VFQ Y1621     -37.569 131.639   8.463  1.00 32.96     0.009 C 
HETATM   30  C28 VFQ Y1621     -37.956 132.883   8.751  1.00 32.96     0.007 C 
HETATM   31  C29 VFQ Y1621     -39.091 133.517   8.052  1.00 30.42    -0.062 C 
HETATM   32  C30 VFQ Y1621     -39.438 134.753   8.472  1.00 30.42     0.007 C 
HETATM   33  C31 VFQ Y1621     -40.567 135.514   7.937  1.00 30.42     0.001 C 
HETATM   34  C32 VFQ Y1621     -40.904 136.663   8.521  1.00 30.42     0.007 C 
HETATM   35  C33 VFQ Y1621     -42.080 137.443   8.081  1.00 30.42    -0.062 C 
HETATM   36  C34 VFQ Y1621     -42.420 138.505   8.843  1.00 30.42     0.007 C 
HETATM   37  C35 VFQ Y1621     -43.581 139.363   8.599  1.00 30.42     0.001 C 
HETATM   38  C36 VFQ Y1621     -35.704 130.130   7.001  1.00 32.96     0.020 C 
HETATM   39  C37 VFQ Y1621     -34.544 132.209   7.727  1.00 32.96     0.020 C 
HETATM   40  C38 VFQ Y1621     -37.143 131.700  11.426  1.00 32.96     0.044 C 
HETATM   41  C39 VFQ Y1621     -39.778 132.774   6.935  1.00 30.42     0.048 C 
HETATM   42  C40 VFQ Y1621     -42.854 136.995   6.869  1.00 30.42     0.048 C 
HETATM   43  O23 VFQ Y1621     -32.683 130.097  10.869  1.00 32.96    -0.395 OA
ATOM     44  H23 VFQ Y1621     -32.663 130.152  11.817  1.00  0.00     0.210 HD
ENDROOT
TORSDOF 12
