REMARK VINA RESULT:   -10.694      0.000      0.000
REMARK INTER + INTRA:         -12.941
REMARK INTER:                 -10.694
REMARK INTRA:                  -2.247
REMARK UNBOUND:                -2.247
REMARK  0 active torsions:
REMARK  status: ('A' for Active; 'I' for Inactive)
REMARK       I    between atoms: C3_3  and  O3_21 
REMARK       I    between atoms: C6_6  and  C7_7 
REMARK       I    between atoms: C8_8  and  C9_9 
REMARK       I    between atoms: C10_10  and  C11_11 
REMARK       I    between atoms: C12_12  and  C13_13 
REMARK       I    between atoms: C14_14  and  C15_15 
REMARK       I    between atoms: C23_25  and  O23_43 
REMARK       I    between atoms: C26_28  and  C27_29 
REMARK       I    between atoms: C28_30  and  C29_31 
REMARK       I    between atoms: C30_32  and  C31_33 
REMARK       I    between atoms: C32_34  and  C33_35 
REMARK       I    between atoms: C34_36  and  C35_37 
ROOT
HETATM    1  C1  VFQ N1620     -34.342 127.384   6.700  1.00 61.00    -0.018 C 
HETATM    2  C2  VFQ N1620     -33.859 126.920   5.328  1.00 61.00     0.045 C 
HETATM    3  C3  VFQ N1620     -32.642 127.610   4.729  1.00 61.00     0.123 C 
HETATM    4  C4  VFQ N1620     -31.653 128.038   5.792  1.00 61.00     0.066 C 
HETATM    5  C5  VFQ N1620     -32.339 128.861   6.846  1.00 61.00    -0.074 C 
HETATM    6  C6  VFQ N1620     -33.563 128.548   7.286  1.00 61.00    -0.048 C 
HETATM    7  C7  VFQ N1620     -34.182 129.335   8.383  1.00 61.00     0.009 C 
HETATM    8  C8  VFQ N1620     -34.934 130.408   8.135  1.00 61.00     0.007 C 
HETATM    9  C9  VFQ N1620     -35.572 131.215   9.182  1.00 61.00    -0.062 C 
HETATM   10  C10 VFQ N1620     -36.163 132.343   8.780  1.00 61.00     0.007 C 
HETATM   11  C11 VFQ N1620     -36.868 133.257   9.667  1.00 61.00     0.001 C 
HETATM   12  C12 VFQ N1620     -37.560 134.210   9.056  1.00 61.00     0.007 C 
HETATM   13  C13 VFQ N1620     -38.369 135.204   9.768  1.00 61.00    -0.062 C 
HETATM   14  C14 VFQ N1620     -39.189 135.965   9.034  1.00 61.00     0.007 C 
HETATM   15  C15 VFQ N1620     -40.078 136.968   9.604  1.00 61.00     0.001 C 
HETATM   16  C16 VFQ N1620     -34.280 126.170   7.621  1.00 61.00     0.020 C 
HETATM   17  C17 VFQ N1620     -35.790 127.832   6.559  1.00 61.00     0.020 C 
HETATM   18  C18 VFQ N1620     -31.531 129.963   7.469  1.00 61.00     0.044 C 
HETATM   19  C19 VFQ N1620     -35.557 130.790  10.618  1.00 61.00     0.048 C 
HETATM   20  C20 VFQ N1620     -38.290 135.334  11.255  1.00 61.00     0.048 C 
HETATM   21  O3  VFQ N1620     -31.984 126.684   3.856  1.00 61.00    -0.395 OA
ATOM     22  H3  VFQ N1620     -32.605 126.415   3.189  1.00  0.00     0.210 HD
HETATM   23  C21 VFQ N1620     -49.729 144.578  10.851  1.00 21.49    -0.018 C 
HETATM   24  C22 VFQ N1620     -50.783 145.496  11.461  1.00 21.49     0.045 C 
HETATM   25  C23 VFQ N1620     -50.480 146.985  11.514  1.00 21.49     0.123 C 
HETATM   26  C24 VFQ N1620     -49.013 147.256  11.757  1.00 21.49     0.066 C 
HETATM   27  C25 VFQ N1620     -48.178 146.533  10.739  1.00 21.49    -0.074 C 
HETATM   28  C26 VFQ N1620     -48.498 145.299  10.324  1.00 21.49    -0.048 C 
HETATM   29  C27 VFQ N1620     -47.645 144.615   9.315  1.00 21.49     0.009 C 
HETATM   30  C28 VFQ N1620     -46.669 143.779   9.676  1.00 21.49     0.007 C 
HETATM   31  C29 VFQ N1620     -45.806 143.087   8.718  1.00 61.00    -0.062 C 
HETATM   32  C30 VFQ N1620     -45.174 141.999   9.165  1.00 61.00     0.007 C 
HETATM   33  C31 VFQ N1620     -44.284 141.147   8.386  1.00 61.00     0.001 C 
HETATM   34  C32 VFQ N1620     -43.508 140.333   9.092  1.00 61.00     0.007 C 
HETATM   35  C33 VFQ N1620     -42.566 139.384   8.482  1.00 61.00    -0.062 C 
HETATM   36  C34 VFQ N1620     -41.823 138.616   9.291  1.00 61.00     0.007 C 
HETATM   37  C35 VFQ N1620     -40.889 137.621   8.775  1.00 61.00     0.001 C 
HETATM   38  C36 VFQ N1620     -50.374 143.854   9.681  1.00 21.49     0.020 C 
HETATM   39  C37 VFQ N1620     -49.369 143.553  11.925  1.00 21.49     0.020 C 
HETATM   40  C38 VFQ N1620     -46.981 147.268  10.210  1.00 21.49     0.044 C 
HETATM   41  C39 VFQ N1620     -45.646 143.576   7.312  1.00 61.00     0.048 C 
HETATM   42  C40 VFQ N1620     -42.458 139.276   6.993  1.00 61.00     0.048 C 
HETATM   43  O23 VFQ N1620     -51.218 147.550  12.601  1.00 21.49    -0.395 OA
ATOM     44  H23 VFQ N1620     -51.028 148.481  12.634  1.00  0.00     0.210 HD
ENDROOT
TORSDOF 12
