REMARK VINA RESULT:   -10.493      0.000      0.000
REMARK INTER + INTRA:         -12.732
REMARK INTER:                 -10.493
REMARK INTRA:                  -2.239
REMARK UNBOUND:                -2.239
REMARK  0 active torsions:
REMARK  status: ('A' for Active; 'I' for Inactive)
REMARK       I    between atoms: C3_3  and  O3_21 
REMARK       I    between atoms: C6_6  and  C7_7 
REMARK       I    between atoms: C8_8  and  C9_9 
REMARK       I    between atoms: C10_10  and  C11_11 
REMARK       I    between atoms: C12_12  and  C13_13 
REMARK       I    between atoms: C14_14  and  C15_15 
REMARK       I    between atoms: C23_25  and  O23_43 
REMARK       I    between atoms: C26_28  and  C27_29 
REMARK       I    between atoms: C28_30  and  C29_31 
REMARK       I    between atoms: C30_32  and  C31_33 
REMARK       I    between atoms: C32_34  and  C33_35 
REMARK       I    between atoms: C34_36  and  C35_37 
ROOT
HETATM    1  C1  VFQ 3 316     -34.305 127.416   6.760  1.00 78.71    -0.018 C 
HETATM    2  C2  VFQ 3 316     -33.682 126.937   5.447  1.00 77.73     0.045 C 
HETATM    3  C3  VFQ 3 316     -32.498 127.749   4.934  1.00 76.79     0.123 C 
HETATM    4  C4  VFQ 3 316     -31.565 128.081   6.082  1.00 76.86     0.066 C 
HETATM    5  C5  VFQ 3 316     -32.332 128.916   7.071  1.00 77.66    -0.074 C 
HETATM    6  C6  VFQ 3 316     -33.574 128.574   7.417  1.00 78.84    -0.048 C 
HETATM    7  C7  VFQ 3 316     -34.285 129.352   8.458  1.00 78.35     0.009 C 
HETATM    8  C8  VFQ 3 316     -34.850 130.515   8.140  1.00 77.95     0.007 C 
HETATM    9  C9  VFQ 3 316     -35.581 131.332   9.125  1.00 78.35    -0.062 C 
HETATM   10  C10 VFQ 3 316     -36.208 132.431   8.684  1.00 77.38     0.007 C 
HETATM   11  C11 VFQ 3 316     -36.985 133.318   9.543  1.00 77.06     0.001 C 
HETATM   12  C12 VFQ 3 316     -37.760 134.194   8.912  1.00 77.59     0.007 C 
HETATM   13  C13 VFQ 3 316     -38.642 135.161   9.592  1.00 77.36    -0.062 C 
HETATM   14  C14 VFQ 3 316     -39.426 135.929   8.821  1.00 75.86     0.007 C 
HETATM   15  C15 VFQ 3 316     -40.361 136.906   9.364  1.00 74.54     0.001 C 
HETATM   16  C16 VFQ 3 316     -34.333 126.248   7.740  1.00 78.56     0.020 C 
HETATM   17  C17 VFQ 3 316     -35.736 127.863   6.477  1.00 78.60     0.020 C 
HETATM   18  C18 VFQ 3 316     -31.579 129.984   7.810  1.00 77.80     0.044 C 
HETATM   19  C19 VFQ 3 316     -35.628 130.935  10.571  1.00 79.41     0.048 C 
HETATM   20  C20 VFQ 3 316     -38.670 135.270  11.088  1.00 77.68     0.048 C 
HETATM   21  O3  VFQ 3 316     -31.780 126.996   3.950  1.00 76.23    -0.395 OA
ATOM     22  H3  VFQ 3 316     -31.043 127.502   3.630  1.00  0.00     0.210 HD
HETATM   23  C21 VFQ 3 316     -50.075 145.065   9.544  1.00 21.11    -0.017 C 
HETATM   24  C22 VFQ 3 316     -51.174 145.929  10.187  1.00 20.11     0.049 C 
HETATM   25  C23 VFQ 3 316     -50.792 147.150  11.023  1.00 19.41     0.142 C 
HETATM   26  C24 VFQ 3 316     -49.296 147.491  11.072  1.00 18.39     0.012 C 
HETATM   27  C25 VFQ 3 316     -48.295 146.782  10.222  1.00 18.34    -0.056 C 
HETATM   28  C26 VFQ 3 316     -48.612 145.648   9.511  1.00 19.81    -0.044 C 
HETATM   29  C27 VFQ 3 316     -47.673 144.887   8.656  1.00 19.02     0.009 C 
HETATM   30  C28 VFQ 3 316     -46.779 143.984   9.105  1.00 17.97     0.007 C 
HETATM   31  C29 VFQ 3 316     -45.850 143.222   8.302  1.00 87.05    -0.062 C 
HETATM   32  C30 VFQ 3 316     -45.130 142.249   8.873  1.00 83.33     0.007 C 
HETATM   33  C31 VFQ 3 316     -44.185 141.425   8.128  1.00 80.71     0.001 C 
HETATM   34  C32 VFQ 3 316     -43.515 140.514   8.825  1.00 78.86     0.007 C 
HETATM   35  C33 VFQ 3 316     -42.530 139.594   8.230  1.00 77.40    -0.062 C 
HETATM   36  C34 VFQ 3 316     -41.981 138.661   9.022  1.00 76.14     0.007 C 
HETATM   37  C35 VFQ 3 316     -41.014 137.694   8.517  1.00 74.61     0.001 C 
HETATM   38  C36 VFQ 3 316     -50.573 144.762   8.115  1.00 19.56     0.020 C 
HETATM   39  C37 VFQ 3 316     -50.122 143.747  10.356  1.00 18.49     0.020 C 
HETATM   40  C38 VFQ 3 316     -47.010 147.521  10.279  1.00 16.89     0.048 C 
HETATM   41  C39 VFQ 3 316     -45.713 143.525   6.838  1.00 86.53     0.048 C 
HETATM   42  C40 VFQ 3 316     -42.153 139.700   6.783  1.00 77.09     0.048 C 
HETATM   43  O23 VFQ 3 316     -51.309 147.025  12.336  1.00 18.27    -0.392 OA
ATOM     44  H23 VFQ 3 316     -52.235 146.814  12.306  1.00  0.00     0.210 HD
ENDROOT
TORSDOF 12
