REMARK VINA RESULT:    -9.514      0.000      0.000
REMARK INTER + INTRA:         -12.713
REMARK INTER:                  -9.514
REMARK INTRA:                  -3.199
REMARK UNBOUND:                -3.199
REMARK  0 active torsions:
REMARK  status: ('A' for Active; 'I' for Inactive)
REMARK       I    between atoms: C3_3  and  O3_21 
REMARK       I    between atoms: C6_6  and  C7_7 
REMARK       I    between atoms: C8_8  and  C9_9 
REMARK       I    between atoms: C10_10  and  C11_11 
REMARK       I    between atoms: C12_12  and  C13_13 
REMARK       I    between atoms: C14_14  and  C15_15 
REMARK       I    between atoms: C23_25  and  O23_43 
REMARK       I    between atoms: C26_28  and  C27_29 
REMARK       I    between atoms: C28_30  and  C29_31 
REMARK       I    between atoms: C30_32  and  C31_33 
REMARK       I    between atoms: C32_34  and  C33_35 
REMARK       I    between atoms: C34_36  and  C35_37 
ROOT
HETATM    1  C1  VFQ 21621     -34.481 126.958   6.202  1.00 90.34    -0.018 C 
HETATM    2  C2  VFQ 21621     -34.111 126.329   4.863  1.00 90.34     0.045 C 
HETATM    3  C3  VFQ 21621     -32.943 126.928   4.096  1.00 90.34     0.123 C 
HETATM    4  C4  VFQ 21621     -31.887 127.479   5.033  1.00 90.34     0.066 C 
HETATM    5  C5  VFQ 21621     -32.552 128.480   5.931  1.00 90.34    -0.074 C 
HETATM    6  C6  VFQ 21621     -33.654 128.160   6.606  1.00 90.34    -0.048 C 
HETATM    7  C7  VFQ 21621     -34.102 128.947   7.782  1.00 90.34     0.009 C 
HETATM    8  C8  VFQ 21621     -34.768 130.094   7.628  1.00 90.34     0.007 C 
HETATM    9  C9  VFQ 21621     -35.271 130.918   8.735  1.00 90.34    -0.062 C 
HETATM   10  C10 VFQ 21621     -36.170 131.842   8.398  1.00 90.34     0.007 C 
HETATM   11  C11 VFQ 21621     -36.853 132.770   9.284  1.00 90.34     0.001 C 
HETATM   12  C12 VFQ 21621     -37.698 133.588   8.665  1.00 90.34     0.007 C 
HETATM   13  C13 VFQ 21621     -38.510 134.575   9.386  1.00 90.34    -0.062 C 
HETATM   14  C14 VFQ 21621     -39.362 135.331   8.687  1.00 90.34     0.007 C 
HETATM   15  C15 VFQ 21621     -40.229 136.303   9.340  1.00 90.34     0.001 C 
HETATM   16  C16 VFQ 21621     -34.388 125.850   7.244  1.00 90.34     0.020 C 
HETATM   17  C17 VFQ 21621     -35.917 127.438   6.115  1.00 90.34     0.020 C 
HETATM   18  C18 VFQ 21621     -31.498 129.368   6.512  1.00 90.34     0.044 C 
HETATM   19  C19 VFQ 21621     -34.814 130.726  10.148  1.00 90.34     0.048 C 
HETATM   20  C20 VFQ 21621     -38.395 134.712  10.872  1.00 90.34     0.048 C 
HETATM   21  O3  VFQ 21621     -32.351 125.893   3.312  1.00 90.34    -0.395 OA
ATOM     22  H3  VFQ 21621     -31.622 126.267   2.833  1.00  0.00     0.210 HD
HETATM   23  C21 VFQ 21621     -49.966 144.387  11.080  1.00 57.09    -0.018 C 
HETATM   24  C22 VFQ 21621     -50.821 145.237  12.010  1.00 57.09     0.045 C 
HETATM   25  C23 VFQ 21621     -50.099 146.209  12.925  1.00 57.09     0.123 C 
HETATM   26  C24 VFQ 21621     -48.799 145.613  13.415  1.00 57.09     0.066 C 
HETATM   27  C25 VFQ 21621     -47.952 145.265  12.225  1.00 57.09    -0.074 C 
HETATM   28  C26 VFQ 21621     -48.469 144.573  11.203  1.00 57.09    -0.048 C 
HETATM   29  C27 VFQ 21621     -47.604 143.984  10.146  1.00 57.09     0.009 C 
HETATM   30  C28 VFQ 21621     -46.968 142.821  10.321  1.00 57.09     0.007 C 
HETATM   31  C29 VFQ 21621     -46.122 142.195   9.301  1.00 90.34    -0.062 C 
HETATM   32  C30 VFQ 21621     -45.662 140.981   9.594  1.00 90.34     0.007 C 
HETATM   33  C31 VFQ 21621     -44.828 140.166   8.725  1.00 90.34     0.001 C 
HETATM   34  C32 VFQ 21621     -43.907 139.423   9.327  1.00 90.34     0.007 C 
HETATM   35  C33 VFQ 21621     -43.010 138.524   8.592  1.00 90.34    -0.062 C 
HETATM   36  C34 VFQ 21621     -42.026 137.905   9.260  1.00 90.34     0.007 C 
HETATM   37  C35 VFQ 21621     -41.121 136.965   8.609  1.00 90.34     0.001 C 
HETATM   38  C36 VFQ 21621     -50.332 144.765   9.661  1.00 57.09     0.020 C 
HETATM   39  C37 VFQ 21621     -50.353 142.937  11.324  1.00 57.09     0.020 C 
HETATM   40  C38 VFQ 21621     -46.533 145.749  12.235  1.00 57.09     0.044 C 
HETATM   41  C39 VFQ 21621     -45.813 142.869   8.000  1.00 90.34     0.048 C 
HETATM   42  C40 VFQ 21621     -43.231 138.300   7.131  1.00 90.34     0.048 C 
HETATM   43  O23 VFQ 21621     -50.944 146.457  14.049  1.00 57.09    -0.395 OA
ATOM     44  H23 VFQ 21621     -51.761 146.832  13.741  1.00  0.00     0.210 HD
ENDROOT
TORSDOF 12
