REMARK VINA RESULT:    -9.805      0.000      0.000
REMARK INTER + INTRA:         -13.019
REMARK INTER:                  -9.805
REMARK INTRA:                  -3.214
REMARK UNBOUND:                -3.214
REMARK  0 active torsions:
REMARK  status: ('A' for Active; 'I' for Inactive)
REMARK       I    between atoms: C3_3  and  O3_21 
REMARK       I    between atoms: C6_6  and  C7_7 
REMARK       I    between atoms: C8_8  and  C9_9 
REMARK       I    between atoms: C10_10  and  C11_11 
REMARK       I    between atoms: C12_12  and  C13_13 
REMARK       I    between atoms: C14_14  and  C15_15 
REMARK       I    between atoms: C23_25  and  O23_43 
REMARK       I    between atoms: C26_28  and  C27_29 
REMARK       I    between atoms: C28_30  and  C29_31 
REMARK       I    between atoms: C30_32  and  C31_33 
REMARK       I    between atoms: C32_34  and  C33_35 
REMARK       I    between atoms: C34_36  and  C35_37 
ROOT
HETATM    1  C1  VFQ N1621     -34.361 127.007   6.302  1.00 51.88    -0.018 C 
HETATM    2  C2  VFQ N1621     -33.967 126.435   4.947  1.00 51.88     0.045 C 
HETATM    3  C3  VFQ N1621     -32.797 127.089   4.246  1.00 51.88     0.123 C 
HETATM    4  C4  VFQ N1621     -31.716 127.413   5.248  1.00 51.88     0.066 C 
HETATM    5  C5  VFQ N1621     -32.270 128.343   6.285  1.00 51.88    -0.074 C 
HETATM    6  C6  VFQ N1621     -33.469 128.118   6.827  1.00 51.88    -0.048 C 
HETATM    7  C7  VFQ N1621     -33.993 128.925   7.960  1.00 51.88     0.009 C 
HETATM    8  C8  VFQ N1621     -34.600 130.100   7.779  1.00 51.88     0.007 C 
HETATM    9  C9  VFQ N1621     -35.175 130.907   8.863  1.00 51.88    -0.062 C 
HETATM   10  C10 VFQ N1621     -36.071 131.813   8.471  1.00 51.88     0.007 C 
HETATM   11  C11 VFQ N1621     -36.826 132.715   9.325  1.00 51.88     0.001 C 
HETATM   12  C12 VFQ N1621     -37.676 133.497   8.673  1.00 51.88     0.007 C 
HETATM   13  C13 VFQ N1621     -38.572 134.439   9.356  1.00 51.88    -0.062 C 
HETATM   14  C14 VFQ N1621     -39.379 135.207   8.613  1.00 51.88     0.007 C 
HETATM   15  C15 VFQ N1621     -40.319 136.135   9.227  1.00 51.88     0.001 C 
HETATM   16  C16 VFQ N1621     -34.440 125.850   7.285  1.00 51.88     0.020 C 
HETATM   17  C17 VFQ N1621     -35.752 127.579   6.158  1.00 51.88     0.020 C 
HETATM   18  C18 VFQ N1621     -31.291 129.321   6.857  1.00 51.88     0.044 C 
HETATM   19  C19 VFQ N1621     -34.790 130.719  10.297  1.00 51.88     0.048 C 
HETATM   20  C20 VFQ N1621     -38.600 134.491  10.852  1.00 51.88     0.048 C 
HETATM   21  O3  VFQ N1621     -32.258 126.166   3.295  1.00 51.88    -0.395 OA
ATOM     22  H3  VFQ N1621     -31.523 126.576   2.854  1.00  0.00     0.210 HD
HETATM   23  C21 VFQ N1621     -49.796 144.810  10.062  1.00 48.43    -0.018 C 
HETATM   24  C22 VFQ N1621     -50.743 145.697  10.858  1.00 44.61     0.045 C 
HETATM   25  C23 VFQ N1621     -50.095 146.693  11.800  1.00 44.41     0.123 C 
HETATM   26  C24 VFQ N1621     -48.927 146.068  12.522  1.00 41.53     0.066 C 
HETATM   27  C25 VFQ N1621     -47.931 145.632  11.494  1.00 37.72    -0.074 C 
HETATM   28  C26 VFQ N1621     -48.329 144.932  10.433  1.00 43.52    -0.048 C 
HETATM   29  C27 VFQ N1621     -47.358 144.263   9.536  1.00 44.60     0.009 C 
HETATM   30  C28 VFQ N1621     -46.829 143.080   9.823  1.00 43.22     0.007 C 
HETATM   31  C29 VFQ N1621     -45.900 142.409   8.898  1.00 51.88    -0.062 C 
HETATM   32  C30 VFQ N1621     -45.499 141.178   9.234  1.00 51.88     0.007 C 
HETATM   33  C31 VFQ N1621     -44.585 140.359   8.448  1.00 51.88     0.001 C 
HETATM   34  C32 VFQ N1621     -43.764 139.551   9.117  1.00 51.88     0.007 C 
HETATM   35  C33 VFQ N1621     -42.804 138.677   8.427  1.00 51.88    -0.062 C 
HETATM   36  C34 VFQ N1621     -41.993 137.868   9.125  1.00 51.88     0.007 C 
HETATM   37  C35 VFQ N1621     -41.037 136.971   8.480  1.00 51.88     0.001 C 
HETATM   38  C36 VFQ N1621     -49.856 145.199   8.597  1.00 47.48     0.020 C 
HETATM   39  C37 VFQ N1621     -50.321 143.388  10.232  1.00 54.25     0.020 C 
HETATM   40  C38 VFQ N1621     -46.507 146.022  11.712  1.00 37.77     0.044 C 
HETATM   41  C39 VFQ N1621     -45.435 143.086   7.647  1.00 51.88     0.048 C 
HETATM   42  C40 VFQ N1621     -42.759 138.711   6.941  1.00 51.88     0.048 C 
HETATM   43  O23 VFQ N1621     -51.059 147.114  12.765  1.00 48.83    -0.395 OA
ATOM     44  H23 VFQ N1621     -50.653 147.737  13.355  1.00  0.00     0.210 HD
ENDROOT
TORSDOF 12
