REMARK VINA RESULT:    -7.306      1.430     16.861
REMARK INTER + INTRA:         -10.519
REMARK INTER:                 -10.259
REMARK INTRA:                  -0.260
REMARK UNBOUND:                -3.214
REMARK  0 active torsions:
REMARK  status: ('A' for Active; 'I' for Inactive)
REMARK       I    between atoms: C3_3  and  O3_21 
REMARK       I    between atoms: C6_6  and  C7_7 
REMARK       I    between atoms: C8_8  and  C9_9 
REMARK       I    between atoms: C10_10  and  C11_11 
REMARK       I    between atoms: C12_12  and  C13_13 
REMARK       I    between atoms: C14_14  and  C15_15 
REMARK       I    between atoms: C23_25  and  O23_43 
REMARK       I    between atoms: C26_28  and  C27_29 
REMARK       I    between atoms: C28_30  and  C29_31 
REMARK       I    between atoms: C30_32  and  C31_33 
REMARK       I    between atoms: C32_34  and  C33_35 
REMARK       I    between atoms: C34_36  and  C35_37 
ROOT
HETATM    1  C1  VFQ N1621     -49.692 145.699  11.873  1.00 51.88    -0.018 C 
HETATM    2  C2  VFQ N1621     -50.564 145.822  13.115  1.00 51.88     0.045 C 
HETATM    3  C3  VFQ N1621     -49.976 146.572  14.290  1.00 51.88     0.123 C 
HETATM    4  C4  VFQ N1621     -49.224 147.785  13.797  1.00 51.88     0.066 C 
HETATM    5  C5  VFQ N1621     -48.127 147.343  12.875  1.00 51.88    -0.074 C 
HETATM    6  C6  VFQ N1621     -48.360 146.425  11.936  1.00 51.88    -0.048 C 
HETATM    7  C7  VFQ N1621     -47.348 146.065  10.908  1.00 51.88     0.009 C 
HETATM    8  C8  VFQ N1621     -46.376 145.181  11.142  1.00 51.88     0.007 C 
HETATM    9  C9  VFQ N1621     -45.385 144.760  10.143  1.00 51.88    -0.062 C 
HETATM   10  C10 VFQ N1621     -44.770 143.609  10.415  1.00 51.88     0.007 C 
HETATM   11  C11 VFQ N1621     -43.782 142.935   9.590  1.00 51.88     0.001 C 
HETATM   12  C12 VFQ N1621     -43.351 141.783  10.087  1.00 51.88     0.007 C 
HETATM   13  C13 VFQ N1621     -42.395 140.921   9.382  1.00 51.88    -0.062 C 
HETATM   14  C14 VFQ N1621     -41.998 139.787   9.974  1.00 51.88     0.007 C 
HETATM   15  C15 VFQ N1621     -41.081 138.867   9.314  1.00 51.88     0.001 C 
HETATM   16  C16 VFQ N1621     -50.518 146.160  10.683  1.00 51.88     0.020 C 
HETATM   17  C17 VFQ N1621     -49.395 144.231  11.680  1.00 51.88     0.020 C 
HETATM   18  C18 VFQ N1621     -46.894 148.193  12.893  1.00 51.88     0.044 C 
HETATM   19  C19 VFQ N1621     -45.096 145.558   8.911  1.00 51.88     0.048 C 
HETATM   20  C20 VFQ N1621     -41.921 141.297   8.012  1.00 51.88     0.048 C 
HETATM   21  O3  VFQ N1621     -51.043 147.023  15.128  1.00 51.88    -0.395 OA
ATOM     22  H3  VFQ N1621     -50.673 147.494  15.866  1.00  0.00     0.210 HD
HETATM   23  C21 VFQ N1621     -34.011 128.276   7.418  1.00 48.43    -0.018 C 
HETATM   24  C22 VFQ N1621     -33.081 127.410   6.580  1.00 44.61     0.045 C 
HETATM   25  C23 VFQ N1621     -31.773 128.049   6.154  1.00 44.41     0.123 C 
HETATM   26  C24 VFQ N1621     -31.988 129.482   5.731  1.00 41.53     0.066 C 
HETATM   27  C25 VFQ N1621     -32.550 130.226   6.901  1.00 37.72    -0.074 C 
HETATM   28  C26 VFQ N1621     -33.574 129.721   7.585  1.00 43.52    -0.048 C 
HETATM   29  C27 VFQ N1621     -34.324 130.531   8.574  1.00 44.60     0.009 C 
HETATM   30  C28 VFQ N1621     -35.284 131.374   8.215  1.00 43.22     0.007 C 
HETATM   31  C29 VFQ N1621     -36.049 132.138   9.215  1.00 51.88    -0.062 C 
HETATM   32  C30 VFQ N1621     -37.060 132.886   8.758  1.00 51.88     0.007 C 
HETATM   33  C31 VFQ N1621     -37.927 133.708   9.592  1.00 51.88     0.001 C 
HETATM   34  C32 VFQ N1621     -38.381 134.844   9.064  1.00 51.88     0.007 C 
HETATM   35  C33 VFQ N1621     -39.266 135.748   9.812  1.00 51.88    -0.062 C 
HETATM   36  C34 VFQ N1621     -39.713 136.883   9.253  1.00 51.88     0.007 C 
HETATM   37  C35 VFQ N1621     -40.608 137.800   9.954  1.00 51.88     0.001 C 
HETATM   38  C36 VFQ N1621     -34.070 127.726   8.831  1.00 47.48     0.020 C 
HETATM   39  C37 VFQ N1621     -35.386 128.156   6.768  1.00 54.25     0.020 C 
HETATM   40  C38 VFQ N1621     -31.910 131.527   7.255  1.00 37.77     0.044 C 
HETATM   41  C39 VFQ N1621     -35.698 132.073  10.669  1.00 51.88     0.048 C 
HETATM   42  C40 VFQ N1621     -39.653 135.371  11.198  1.00 51.88     0.048 C 
HETATM   43  O23 VFQ N1621     -31.240 127.320   5.048  1.00 48.83    -0.395 OA
ATOM     44  H23 VFQ N1621     -30.421 127.721   4.781  1.00  0.00     0.210 HD
ENDROOT
TORSDOF 12
