REMARK VINA RESULT:    -8.013      1.245     16.494
REMARK INTER + INTRA:         -10.641
REMARK INTER:                 -10.298
REMARK INTRA:                  -0.342
REMARK UNBOUND:                -2.628
REMARK  0 active torsions:
REMARK  status: ('A' for Active; 'I' for Inactive)
REMARK       I    between atoms: C3_3  and  O3_21 
REMARK       I    between atoms: C6_6  and  C7_7 
REMARK       I    between atoms: C8_8  and  C9_9 
REMARK       I    between atoms: C10_10  and  C11_11 
REMARK       I    between atoms: C12_12  and  C13_13 
REMARK       I    between atoms: C14_14  and  C15_15 
REMARK       I    between atoms: C23_25  and  O23_43 
REMARK       I    between atoms: C26_28  and  C27_29 
REMARK       I    between atoms: C28_30  and  C29_31 
REMARK       I    between atoms: C30_32  and  C31_33 
REMARK       I    between atoms: C32_34  and  C33_35 
REMARK       I    between atoms: C34_36  and  C35_37 
ROOT
HETATM    1  C1  VFQ y1620     -49.989 144.567  12.053  1.00 32.28    -0.018 C 
HETATM    2  C2  VFQ y1620     -50.592 144.856  13.416  1.00 32.10     0.045 C 
HETATM    3  C3  VFQ y1620     -49.781 145.722  14.354  1.00 30.03     0.123 C 
HETATM    4  C4  VFQ y1620     -49.170 146.903  13.654  1.00 27.01     0.066 C 
HETATM    5  C5  VFQ y1620     -48.411 146.485  12.434  1.00 26.85    -0.074 C 
HETATM    6  C6  VFQ y1620     -48.753 145.399  11.722  1.00 32.38    -0.048 C 
HETATM    7  C7  VFQ y1620     -47.916 144.987  10.568  1.00 31.45     0.009 C 
HETATM    8  C8  VFQ y1620     -46.934 144.100  10.720  1.00 30.07     0.007 C 
HETATM    9  C9  VFQ y1620     -46.068 143.648   9.633  1.00 31.62    -0.062 C 
HETATM   10  C10 VFQ y1620     -45.040 142.884  10.003  1.00 26.80     0.007 C 
HETATM   11  C11 VFQ y1620     -44.062 142.314   9.104  1.00 22.84     0.001 C 
HETATM   12  C12 VFQ y1620     -43.395 141.326   9.663  1.00 24.53     0.007 C 
HETATM   13  C13 VFQ y1620     -42.383 140.538   8.967  1.00 24.57    -0.062 C 
HETATM   14  C14 VFQ y1620     -41.836 139.542   9.656  1.00 24.07     0.007 C 
HETATM   15  C15 VFQ y1620     -40.857 138.643   9.086  1.00 24.13     0.001 C 
HETATM   16  C16 VFQ y1620     -51.137 144.785  11.072  1.00 30.09     0.020 C 
HETATM   17  C17 VFQ y1620     -49.579 143.103  12.016  1.00 35.00     0.020 C 
HETATM   18  C18 VFQ y1620     -47.152 147.263  12.202  1.00 25.72     0.044 C 
HETATM   19  C19 VFQ y1620     -46.324 144.054   8.215  1.00 32.28     0.048 C 
HETATM   20  C20 VFQ y1620     -42.025 140.824   7.547  1.00 25.14     0.048 C 
HETATM   21  O3  VFQ y1620     -50.658 146.239  15.357  1.00 33.60    -0.395 OA
ATOM     22  H3  VFQ y1620     -51.045 145.493  15.799  1.00  0.00     0.210 HD
HETATM   23  C21 VFQ y1620     -34.161 128.361   6.982  1.00 57.79    -0.018 C 
HETATM   24  C22 VFQ y1620     -33.362 127.758   5.839  1.00 59.26     0.045 C 
HETATM   25  C23 VFQ y1620     -31.866 127.902   6.013  1.00 62.25     0.123 C 
HETATM   26  C24 VFQ y1620     -31.519 129.368   6.082  1.00 57.83     0.066 C 
HETATM   27  C25 VFQ y1620     -32.329 130.075   7.133  1.00 54.66    -0.074 C 
HETATM   28  C26 VFQ y1620     -33.536 129.634   7.548  1.00 55.29    -0.048 C 
HETATM   29  C27 VFQ y1620     -34.270 130.359   8.617  1.00 55.61     0.009 C 
HETATM   30  C28 VFQ y1620     -35.058 131.409   8.372  1.00 56.19     0.007 C 
HETATM   31  C29 VFQ y1620     -35.780 132.115   9.419  1.00 31.74    -0.062 C 
HETATM   32  C30 VFQ y1620     -36.677 132.985   8.996  1.00 30.48     0.007 C 
HETATM   33  C31 VFQ y1620     -37.513 133.773   9.872  1.00 30.78     0.001 C 
HETATM   34  C32 VFQ y1620     -38.174 134.727   9.249  1.00 30.06     0.007 C 
HETATM   35  C33 VFQ y1620     -39.091 135.621   9.946  1.00 27.63    -0.062 C 
HETATM   36  C34 VFQ y1620     -39.627 136.608   9.231  1.00 25.49     0.007 C 
HETATM   37  C35 VFQ y1620     -40.575 137.553   9.778  1.00 24.60     0.001 C 
HETATM   38  C36 VFQ y1620     -34.230 127.351   8.116  1.00 58.39     0.020 C 
HETATM   39  C37 VFQ y1620     -35.572 128.555   6.437  1.00 64.45     0.020 C 
HETATM   40  C38 VFQ y1620     -31.659 131.310   7.664  1.00 58.11     0.044 C 
HETATM   41  C39 VFQ y1620     -35.528 131.877  10.871  1.00 33.51     0.048 C 
HETATM   42  C40 VFQ y1620     -39.403 135.400  11.390  1.00 28.91     0.048 C 
HETATM   43  O23 VFQ y1620     -31.193 127.337   4.886  1.00 65.91    -0.395 OA
ATOM     44  H23 VFQ y1620     -30.253 127.428   4.995  1.00  0.00     0.210 HD
ENDROOT
TORSDOF 12
