REMARK VINA RESULT:    -8.037      1.131     16.517
REMARK INTER + INTRA:         -10.480
REMARK INTER:                 -10.243
REMARK INTRA:                  -0.237
REMARK UNBOUND:                -2.443
REMARK  0 active torsions:
REMARK  status: ('A' for Active; 'I' for Inactive)
REMARK       I    between atoms: C3_3  and  O3_21 
REMARK       I    between atoms: C6_6  and  C7_7 
REMARK       I    between atoms: C8_8  and  C9_9 
REMARK       I    between atoms: C10_10  and  C11_11 
REMARK       I    between atoms: C12_12  and  C13_13 
REMARK       I    between atoms: C14_14  and  C15_15 
REMARK       I    between atoms: C23_25  and  O23_43 
REMARK       I    between atoms: C26_28  and  C27_29 
REMARK       I    between atoms: C28_30  and  C29_31 
REMARK       I    between atoms: C30_32  and  C31_33 
REMARK       I    between atoms: C32_34  and  C33_35 
REMARK       I    between atoms: C34_36  and  C35_37 
ROOT
HETATM    1  C1  VFQ y1620     -49.957 144.575  11.961  1.00 32.28    -0.018 C 
HETATM    2  C2  VFQ y1620     -50.485 144.959  13.332  1.00 32.10     0.045 C 
HETATM    3  C3  VFQ y1620     -49.633 145.897  14.156  1.00 30.03     0.123 C 
HETATM    4  C4  VFQ y1620     -49.076 147.028  13.339  1.00 27.01     0.066 C 
HETATM    5  C5  VFQ y1620     -48.383 146.528  12.111  1.00 26.85    -0.074 C 
HETATM    6  C6  VFQ y1620     -48.751 145.390  11.501  1.00 32.38    -0.048 C 
HETATM    7  C7  VFQ y1620     -47.976 144.902  10.334  1.00 31.45     0.009 C 
HETATM    8  C8  VFQ y1620     -46.976 144.036  10.493  1.00 30.07     0.007 C 
HETATM    9  C9  VFQ y1620     -46.168 143.513   9.394  1.00 31.62    -0.062 C 
HETATM   10  C10 VFQ y1620     -45.111 142.786   9.759  1.00 26.80     0.007 C 
HETATM   11  C11 VFQ y1620     -44.179 142.159   8.849  1.00 22.84     0.001 C 
HETATM   12  C12 VFQ y1620     -43.470 141.220   9.439  1.00 24.53     0.007 C 
HETATM   13  C13 VFQ y1620     -42.489 140.391   8.746  1.00 24.57    -0.062 C 
HETATM   14  C14 VFQ y1620     -41.892 139.453   9.473  1.00 24.07     0.007 C 
HETATM   15  C15 VFQ y1620     -40.936 138.522   8.914  1.00 24.13     0.001 C 
HETATM   16  C16 VFQ y1620     -51.161 144.711  11.035  1.00 30.09     0.020 C 
HETATM   17  C17 VFQ y1620     -49.531 143.115  12.007  1.00 35.00     0.020 C 
HETATM   18  C18 VFQ y1620     -47.148 147.297  11.751  1.00 25.72     0.044 C 
HETATM   19  C19 VFQ y1620     -46.509 143.812   7.967  1.00 32.28     0.048 C 
HETATM   20  C20 VFQ y1620     -42.216 140.575   7.290  1.00 25.14     0.048 C 
HETATM   21  O3  VFQ y1620     -50.458 146.480  15.168  1.00 33.60    -0.395 OA
ATOM     22  H3  VFQ y1620     -50.810 145.764  15.685  1.00  0.00     0.210 HD
HETATM   23  C21 VFQ y1620     -34.033 128.163   7.137  1.00 23.07    -0.018 C 
HETATM   24  C22 VFQ y1620     -33.130 127.334   6.205  1.00 21.39     0.045 C 
HETATM   25  C23 VFQ y1620     -31.710 127.833   5.961  1.00 23.10     0.123 C 
HETATM   26  C24 VFQ y1620     -31.545 129.352   6.057  1.00 23.25     0.066 C 
HETATM   27  C25 VFQ y1620     -32.334 130.075   7.102  1.00 22.57    -0.074 C 
HETATM   28  C26 VFQ y1620     -33.493 129.547   7.621  1.00 22.63    -0.048 C 
HETATM   29  C27 VFQ y1620     -34.269 130.258   8.647  1.00 23.01     0.009 C 
HETATM   30  C28 VFQ y1620     -35.098 131.297   8.429  1.00 21.85     0.007 C 
HETATM   31  C29 VFQ y1620     -35.770 132.077   9.429  1.00 31.74    -0.062 C 
HETATM   32  C30 VFQ y1620     -36.700 132.907   8.996  1.00 30.48     0.007 C 
HETATM   33  C31 VFQ y1620     -37.494 133.749   9.859  1.00 30.78     0.001 C 
HETATM   34  C32 VFQ y1620     -38.201 134.650   9.207  1.00 30.06     0.007 C 
HETATM   35  C33 VFQ y1620     -39.088 135.585   9.889  1.00 27.63    -0.062 C 
HETATM   36  C34 VFQ y1620     -39.675 136.513   9.136  1.00 25.49     0.007 C 
HETATM   37  C35 VFQ y1620     -40.602 137.488   9.666  1.00 24.60     0.001 C 
HETATM   38  C36 VFQ y1620     -34.393 127.272   8.347  1.00 21.40     0.020 C 
HETATM   39  C37 VFQ y1620     -35.306 128.365   6.294  1.00 21.74     0.020 C 
HETATM   40  C38 VFQ y1620     -31.637 131.351   7.422  1.00 21.99     0.044 C 
HETATM   41  C39 VFQ y1620     -35.433 131.947  10.878  1.00 33.51     0.048 C 
HETATM   42  C40 VFQ y1620     -39.315 135.468  11.360  1.00 28.91     0.048 C 
HETATM   43  O23 VFQ y1620     -31.236 127.372   4.709  1.00 24.94    -0.395 OA
ATOM     44  H23 VFQ y1620     -30.352 127.683   4.557  1.00  0.00     0.210 HD
ENDROOT
TORSDOF 12
