REMARK VINA RESULT:    -9.299      1.098     17.068
REMARK INTER + INTRA:          -9.566
REMARK INTER:                  -9.182
REMARK INTRA:                  -0.384
REMARK UNBOUND:                -0.267
REMARK  0 active torsions:
REMARK  status: ('A' for Active; 'I' for Inactive)
REMARK       I    between atoms: C3_3  and  O3_21 
REMARK       I    between atoms: C6_6  and  C7_7 
REMARK       I    between atoms: C8_8  and  C9_9 
REMARK       I    between atoms: C10_10  and  C11_11 
REMARK       I    between atoms: C12_12  and  C13_13 
REMARK       I    between atoms: C14_14  and  C15_15 
REMARK       I    between atoms: C23_25  and  O23_43 
REMARK       I    between atoms: C26_28  and  C27_29 
REMARK       I    between atoms: C28_30  and  C29_31 
REMARK       I    between atoms: C30_32  and  C31_33 
REMARK       I    between atoms: C32_34  and  C33_35 
REMARK       I    between atoms: C34_36  and  C35_37 
ROOT
HETATM    1  C1  VFQ A 621     -34.214 128.257   6.779  1.00 21.58    -0.018 C 
HETATM    2  C2  VFQ A 621     -33.481 127.629   5.576  1.00 21.20     0.045 C 
HETATM    3  C3  VFQ A 621     -32.081 128.113   5.187  1.00 20.61     0.123 C 
HETATM    4  C4  VFQ A 621     -31.414 129.075   6.183  1.00 19.82     0.066 C 
HETATM    5  C5  VFQ A 621     -32.200 129.753   7.263  1.00 19.81    -0.074 C 
HETATM    6  C6  VFQ A 621     -33.497 129.409   7.587  1.00 19.95    -0.048 C 
HETATM    7  C7  VFQ A 621     -34.294 130.049   8.674  1.00 17.10     0.009 C 
HETATM    8  C8  VFQ A 621     -34.935 131.232   8.555  1.00 17.58     0.007 C 
HETATM    9  C9  VFQ A 621     -35.740 131.978   9.529  1.00 19.11    -0.062 C 
HETATM   10  C10 VFQ A 621     -36.382 133.086   9.094  1.00 18.37     0.007 C 
HETATM   11  C11 VFQ A 621     -37.290 133.893   9.861  1.00 18.85     0.001 C 
HETATM   12  C12 VFQ A 621     -37.977 134.929   9.344  1.00 19.83     0.007 C 
HETATM   13  C13 VFQ A 621     -39.003 135.730  10.043  1.00 21.26    -0.062 C 
HETATM   14  C14 VFQ A 621     -39.628 136.706   9.344  1.00 20.79     0.007 C 
HETATM   15  C15 VFQ A 621     -40.690 137.574   9.793  1.00 20.26     0.001 C 
HETATM   16  C16 VFQ A 621     -34.461 127.029   7.685  1.00 19.38     0.020 C 
HETATM   17  C17 VFQ A 621     -35.584 128.746   6.254  1.00 19.65     0.020 C 
HETATM   18  C18 VFQ A 621     -31.327 130.766   7.909  1.00 20.06     0.044 C 
HETATM   19  C19 VFQ A 621     -35.867 131.419  10.918  1.00 17.70     0.048 C 
HETATM   20  C20 VFQ A 621     -39.316 135.377  11.468  1.00 18.78     0.048 C 
HETATM   21  O3  VFQ A 621     -31.230 127.006   4.934  1.00 18.88    -0.395 OA
ATOM     22  H3  VFQ A 621     -31.641 126.412   4.318  1.00  0.00     0.210 HD
HETATM   23  C21 VFQ A 621     -49.901 146.054  11.558  1.00 40.88    -0.018 C 
HETATM   24  C22 VFQ A 621     -50.829 146.974  12.353  1.00 40.88     0.045 C 
HETATM   25  C23 VFQ A 621     -50.194 147.986  13.302  1.00 40.88     0.123 C 
HETATM   26  C24 VFQ A 621     -48.884 147.475  13.870  1.00 40.88     0.066 C 
HETATM   27  C25 VFQ A 621     -47.987 147.131  12.712  1.00 40.88    -0.074 C 
HETATM   28  C26 VFQ A 621     -48.432 146.405  11.681  1.00 40.88    -0.048 C 
HETATM   29  C27 VFQ A 621     -47.487 145.955  10.620  1.00 40.88     0.009 C 
HETATM   30  C28 VFQ A 621     -46.893 144.762  10.650  1.00 40.88     0.007 C 
HETATM   31  C29 VFQ A 621     -45.942 144.267   9.604  1.00 26.46    -0.062 C 
HETATM   32  C30 VFQ A 621     -45.377 143.051   9.784  1.00 24.31     0.007 C 
HETATM   33  C31 VFQ A 621     -44.436 142.388   8.911  1.00 21.85     0.001 C 
HETATM   34  C32 VFQ A 621     -43.813 141.262   9.333  1.00 20.83     0.007 C 
HETATM   35  C33 VFQ A 621     -42.779 140.438   8.683  1.00 21.05    -0.062 C 
HETATM   36  C34 VFQ A 621     -42.256 139.414   9.392  1.00 19.63     0.007 C 
HETATM   37  C35 VFQ A 621     -41.200 138.521   8.984  1.00 20.78     0.001 C 
HETATM   38  C36 VFQ A 621     -50.256 146.182  10.088  1.00 40.88     0.020 C 
HETATM   39  C37 VFQ A 621     -50.181 144.619  11.998  1.00 40.88     0.020 C 
HETATM   40  C38 VFQ A 621     -46.592 147.670  12.740  1.00 40.88     0.044 C 
HETATM   41  C39 VFQ A 621     -45.616 145.182   8.456  1.00 25.84     0.048 C 
HETATM   42  C40 VFQ A 621     -42.322 140.835   7.306  1.00 18.97     0.048 C 
HETATM   43  O23 VFQ A 621     -51.102 148.227  14.382  1.00 40.88    -0.395 OA
ATOM     44  H23 VFQ A 621     -51.923 148.548  14.027  1.00  0.00     0.210 HD
ENDROOT
TORSDOF 12
