REMARK VINA RESULT:    -8.934      0.000      0.000
REMARK INTER + INTRA:          -9.704
REMARK INTER:                  -8.934
REMARK INTRA:                  -0.770
REMARK UNBOUND:                -0.770
REMARK  0 active torsions:
REMARK  status: ('A' for Active; 'I' for Inactive)
REMARK       I    between atoms: C3_3  and  O3_21 
REMARK       I    between atoms: C6_6  and  C7_7 
REMARK       I    between atoms: C8_8  and  C9_9 
REMARK       I    between atoms: C10_10  and  C11_11 
REMARK       I    between atoms: C12_12  and  C13_13 
REMARK       I    between atoms: C14_14  and  C15_15 
REMARK       I    between atoms: C23_25  and  O23_43 
REMARK       I    between atoms: C26_28  and  C27_29 
REMARK       I    between atoms: C28_30  and  C29_31 
REMARK       I    between atoms: C30_32  and  C31_33 
REMARK       I    between atoms: C32_34  and  C33_35 
REMARK       I    between atoms: C34_36  and  C35_37 
ROOT
HETATM    1  C1  VFQ A 620     -50.281 145.306  10.226  1.00 22.96    -0.018 C 
HETATM    2  C2  VFQ A 620     -51.180 146.019  11.261  1.00 23.40     0.045 C 
HETATM    3  C3  VFQ A 620     -50.567 147.097  12.153  1.00 22.69     0.123 C 
HETATM    4  C4  VFQ A 620     -49.399 147.846  11.514  1.00 22.06     0.066 C 
HETATM    5  C5  VFQ A 620     -48.501 147.112  10.575  1.00 21.38    -0.074 C 
HETATM    6  C6  VFQ A 620     -48.877 145.936   9.959  1.00 22.58    -0.048 C 
HETATM    7  C7  VFQ A 620     -47.972 145.240   9.023  1.00 22.00     0.009 C 
HETATM    8  C8  VFQ A 620     -46.911 144.465   9.324  1.00 20.93     0.007 C 
HETATM    9  C9  VFQ A 620     -45.951 143.903   8.371  1.00 21.87    -0.062 C 
HETATM   10  C10 VFQ A 620     -45.010 143.055   8.841  1.00 20.24     0.007 C 
HETATM   11  C11 VFQ A 620     -43.990 142.388   8.070  1.00 21.04     0.001 C 
HETATM   12  C12 VFQ A 620     -43.248 141.420   8.628  1.00 22.18     0.007 C 
HETATM   13  C13 VFQ A 620     -42.195 140.579   8.041  1.00 24.17    -0.062 C 
HETATM   14  C14 VFQ A 620     -41.696 139.594   8.819  1.00 25.88     0.007 C 
HETATM   15  C15 VFQ A 620     -40.732 138.583   8.486  1.00 26.51     0.001 C 
HETATM   16  C16 VFQ A 620     -51.123 145.325   8.937  1.00 20.65     0.020 C 
HETATM   17  C17 VFQ A 620     -50.138 143.839  10.673  1.00 21.73     0.020 C 
HETATM   18  C18 VFQ A 620     -47.240 147.894  10.458  1.00 21.05     0.044 C 
HETATM   19  C19 VFQ A 620     -46.115 144.269   6.921  1.00 19.19     0.048 C 
HETATM   20  C20 VFQ A 620     -41.804 140.814   6.612  1.00 21.80     0.048 C 
HETATM   21  O3  VFQ A 620     -51.563 148.016  12.576  1.00 22.00    -0.395 OA
ATOM     22  H3  VFQ A 620     -51.182 148.687  13.131  1.00  0.00     0.210 HD
HETATM   23  C21 VFQ A 620     -34.295 128.915   6.587  1.00 32.37    -0.018 C 
HETATM   24  C22 VFQ A 620     -33.345 128.228   5.617  1.00 32.37     0.045 C 
HETATM   25  C23 VFQ A 620     -31.933 128.062   6.134  1.00 32.37     0.123 C 
HETATM   26  C24 VFQ A 620     -31.434 129.436   6.521  1.00 32.37     0.066 C 
HETATM   27  C25 VFQ A 620     -32.308 129.998   7.613  1.00 32.37    -0.074 C 
HETATM   28  C26 VFQ A 620     -33.548 129.524   7.772  1.00 32.37    -0.048 C 
HETATM   29  C27 VFQ A 620     -34.329 129.862   8.969  1.00 32.37     0.009 C 
HETATM   30  C28 VFQ A 620     -35.074 130.937   8.681  1.00 32.37     0.007 C 
HETATM   31  C29 VFQ A 620     -35.967 131.638   9.660  1.00 37.91    -0.062 C 
HETATM   32  C30 VFQ A 620     -36.647 132.716   9.213  1.00 37.54     0.007 C 
HETATM   33  C31 VFQ A 620     -37.561 133.545   9.957  1.00 35.36     0.001 C 
HETATM   34  C32 VFQ A 620     -38.144 134.612   9.375  1.00 32.59     0.007 C 
HETATM   35  C33 VFQ A 620     -39.080 135.600   9.932  1.00 30.48    -0.062 C 
HETATM   36  C34 VFQ A 620     -39.500 136.589   9.114  1.00 28.06     0.007 C 
HETATM   37  C35 VFQ A 620     -40.409 137.660   9.406  1.00 27.79     0.001 C 
HETATM   38  C36 VFQ A 620     -35.227 127.829   7.124  1.00 32.37     0.020 C 
HETATM   39  C37 VFQ A 620     -35.110 129.882   5.729  1.00 32.37     0.020 C 
HETATM   40  C38 VFQ A 620     -31.732 131.101   8.460  1.00 32.37     0.044 C 
HETATM   41  C39 VFQ A 620     -36.051 131.119  11.065  1.00 38.40     0.048 C 
HETATM   42  C40 VFQ A 620     -39.499 135.444  11.371  1.00 28.72     0.048 C 
HETATM   43  O23 VFQ A 620     -31.150 127.536   5.055  1.00 32.37    -0.395 OA
ATOM     44  H23 VFQ A 620     -30.263 127.432   5.380  1.00  0.00     0.210 HD
ENDROOT
TORSDOF 12
