REMARK VINA RESULT:    -8.943      0.000      0.000
REMARK INTER + INTRA:         -12.310
REMARK INTER:                  -8.943
REMARK INTRA:                  -3.367
REMARK UNBOUND:                -3.367
REMARK  0 active torsions:
REMARK  status: ('A' for Active; 'I' for Inactive)
REMARK       I    between atoms: C3_3  and  O3_21 
REMARK       I    between atoms: C6_6  and  C7_7 
REMARK       I    between atoms: C8_8  and  C9_9 
REMARK       I    between atoms: C10_10  and  C11_11 
REMARK       I    between atoms: C12_12  and  C13_13 
REMARK       I    between atoms: C14_14  and  C15_15 
REMARK       I    between atoms: C23_25  and  O23_43 
REMARK       I    between atoms: C26_28  and  C27_29 
REMARK       I    between atoms: C28_30  and  C29_31 
REMARK       I    between atoms: C30_32  and  C31_33 
REMARK       I    between atoms: C32_34  and  C33_35 
REMARK       I    between atoms: C34_36  and  C35_37 
ROOT
HETATM    1  C1  VFQ g1621     -34.438 126.987   6.160  1.00 57.17    -0.018 C 
HETATM    2  C2  VFQ g1621     -33.972 126.373   4.846  1.00 57.17     0.045 C 
HETATM    3  C3  VFQ g1621     -32.728 126.958   4.204  1.00 57.17     0.123 C 
HETATM    4  C4  VFQ g1621     -31.722 127.357   5.260  1.00 57.17     0.066 C 
HETATM    5  C5  VFQ g1621     -32.366 128.347   6.186  1.00 57.17    -0.074 C 
HETATM    6  C6  VFQ g1621     -33.573 128.102   6.710  1.00 57.17    -0.048 C 
HETATM    7  C7  VFQ g1621     -34.100 128.890   7.857  1.00 57.17     0.009 C 
HETATM    8  C8  VFQ g1621     -34.663 130.090   7.689  1.00 57.17     0.007 C 
HETATM    9  C9  VFQ g1621     -35.215 130.901   8.786  1.00 57.17    -0.062 C 
HETATM   10  C10 VFQ g1621     -36.124 131.812   8.430  1.00 57.17     0.007 C 
HETATM   11  C11 VFQ g1621     -36.844 132.718   9.313  1.00 57.17     0.001 C 
HETATM   12  C12 VFQ g1621     -37.734 133.493   8.701  1.00 57.17     0.007 C 
HETATM   13  C13 VFQ g1621     -38.608 134.453   9.387  1.00 57.17    -0.062 C 
HETATM   14  C14 VFQ g1621     -39.399 135.244   8.650  1.00 57.17     0.007 C 
HETATM   15  C15 VFQ g1621     -40.326 136.183   9.266  1.00 57.17     0.001 C 
HETATM   16  C16 VFQ g1621     -34.558 125.850   7.163  1.00 57.17     0.020 C 
HETATM   17  C17 VFQ g1621     -35.807 127.581   5.917  1.00 57.17     0.020 C 
HETATM   18  C18 VFQ g1621     -31.349 129.208   6.875  1.00 57.17     0.044 C 
HETATM   19  C19 VFQ g1621     -34.784 130.710  10.208  1.00 57.17     0.048 C 
HETATM   20  C20 VFQ g1621     -38.640 134.504  10.883  1.00 57.17     0.048 C 
HETATM   21  O3  VFQ g1621     -32.150 125.948   3.376  1.00 57.17    -0.395 OA
ATOM     22  H3  VFQ g1621     -32.782 125.698   2.713  1.00  0.00     0.210 HD
HETATM   23  C21 VFQ g1621     -49.759 145.276   9.684  1.00 30.42    -0.018 C 
HETATM   24  C22 VFQ g1621     -50.710 146.036  10.614  1.00 30.42     0.045 C 
HETATM   25  C23 VFQ g1621     -50.623 145.720  12.102  1.00 30.42     0.123 C 
HETATM   26  C24 VFQ g1621     -49.930 144.388  12.357  1.00 30.42     0.066 C 
HETATM   27  C25 VFQ g1621     -48.594 144.461  11.679  1.00 30.42    -0.074 C 
HETATM   28  C26 VFQ g1621     -48.552 144.663  10.364  1.00 30.42    -0.048 C 
HETATM   29  C27 VFQ g1621     -47.462 144.141   9.513  1.00 30.42     0.009 C 
HETATM   30  C28 VFQ g1621     -46.869 142.991   9.846  1.00 30.42     0.007 C 
HETATM   31  C29 VFQ g1621     -45.946 142.338   8.880  1.00 57.17    -0.062 C 
HETATM   32  C30 VFQ g1621     -45.548 141.109   9.215  1.00 57.17     0.007 C 
HETATM   33  C31 VFQ g1621     -44.640 140.305   8.412  1.00 57.17     0.001 C 
HETATM   34  C32 VFQ g1621     -43.803 139.525   9.083  1.00 57.17     0.007 C 
HETATM   35  C33 VFQ g1621     -42.838 138.658   8.406  1.00 57.17    -0.062 C 
HETATM   36  C34 VFQ g1621     -42.116 137.786   9.114  1.00 57.17     0.007 C 
HETATM   37  C35 VFQ g1621     -41.155 136.879   8.498  1.00 57.17     0.001 C 
HETATM   38  C36 VFQ g1621     -49.342 146.215   8.564  1.00 30.42     0.020 C 
HETATM   39  C37 VFQ g1621     -50.505 144.096   9.063  1.00 30.42     0.020 C 
HETATM   40  C38 VFQ g1621     -47.351 144.435  12.525  1.00 30.42     0.044 C 
HETATM   41  C39 VFQ g1621     -45.474 143.008   7.627  1.00 57.17     0.048 C 
HETATM   42  C40 VFQ g1621     -42.682 138.798   6.937  1.00 57.17     0.048 C 
HETATM   43  O23 VFQ g1621     -51.965 145.669  12.580  1.00 30.42    -0.395 OA
ATOM     44  H23 VFQ g1621     -52.398 146.500  12.420  1.00  0.00     0.210 HD
ENDROOT
TORSDOF 12
