REMARK VINA RESULT:    -7.759      1.109     16.827
REMARK INTER + INTRA:          -9.996
REMARK INTER:                  -7.671
REMARK INTRA:                  -2.325
REMARK UNBOUND:                -2.238
REMARK  0 active torsions:
REMARK  status: ('A' for Active; 'I' for Inactive)
REMARK       I    between atoms: C3_3  and  O3_21 
REMARK       I    between atoms: C6_6  and  C7_7 
REMARK       I    between atoms: C8_8  and  C9_9 
REMARK       I    between atoms: C10_10  and  C11_11 
REMARK       I    between atoms: C12_12  and  C13_13 
REMARK       I    between atoms: C14_14  and  C15_15 
REMARK       I    between atoms: C23_25  and  O23_43 
REMARK       I    between atoms: C26_28  and  C27_29 
REMARK       I    between atoms: C28_30  and  C29_31 
REMARK       I    between atoms: C30_32  and  C31_33 
REMARK       I    between atoms: C32_34  and  C33_35 
REMARK       I    between atoms: C34_36  and  C35_37 
ROOT
HETATM    1  C1  VFQ F5620     -48.374 145.372  12.449  1.00 19.30    -0.018 C 
HETATM    2  C2  VFQ F5620     -48.981 145.891  13.767  1.00 17.68     0.045 C 
HETATM    3  C3  VFQ F5620     -48.174 146.875  14.608  1.00 17.79     0.123 C 
HETATM    4  C4  VFQ F5620     -47.075 147.631  13.862  1.00 18.50     0.066 C 
HETATM    5  C5  VFQ F5620     -46.381 146.958  12.722  1.00 19.40    -0.074 C 
HETATM    6  C6  VFQ F5620     -46.961 145.902  12.047  1.00 19.02    -0.048 C 
HETATM    7  C7  VFQ F5620     -46.272 145.227  10.936  1.00 18.60     0.009 C 
HETATM    8  C8  VFQ F5620     -45.273 144.325  11.035  1.00 18.09     0.007 C 
HETATM    9  C9  VFQ F5620     -44.502 143.737   9.935  1.00 18.23    -0.062 C 
HETATM   10  C10 VFQ F5620     -43.610 142.770  10.240  1.00 15.81     0.007 C 
HETATM   11  C11 VFQ F5620     -42.771 142.053   9.321  1.00 18.00     0.001 C 
HETATM   12  C12 VFQ F5620     -42.067 140.994   9.753  1.00 18.12     0.007 C 
HETATM   13  C13 VFQ F5620     -41.199 140.094   9.004  1.00 18.88    -0.062 C 
HETATM   14  C14 VFQ F5620     -40.694 139.032   9.668  1.00 21.10     0.007 C 
HETATM   15  C15 VFQ F5620     -39.891 137.960   9.139  1.00 24.06     0.001 C 
HETATM   16  C16 VFQ F5620     -49.408 145.798  11.391  1.00 17.17     0.020 C 
HETATM   17  C17 VFQ F5620     -48.379 143.829  12.526  1.00 16.95     0.020 C 
HETATM   18  C18 VFQ F5620     -45.055 147.614  12.509  1.00 19.80     0.044 C 
HETATM   19  C19 VFQ F5620     -44.796 144.217   8.532  1.00 17.09     0.048 C 
HETATM   20  C20 VFQ F5620     -40.990 140.362   7.546  1.00 16.35     0.048 C 
HETATM   21  O3  VFQ F5620     -49.040 147.791  15.252  1.00 17.38    -0.395 OA
ATOM     22  H3  VFQ F5620     -48.538 148.405  15.776  1.00  0.00     0.210 HD
HETATM   23  C21 VFQ F5620     -34.255 126.670   6.671  1.00 27.53    -0.018 C 
HETATM   24  C22 VFQ F5620     -33.824 125.992   5.372  1.00 27.53     0.045 C 
HETATM   25  C23 VFQ F5620     -32.679 126.734   4.712  1.00 27.53     0.123 C 
HETATM   26  C24 VFQ F5620     -33.222 128.102   4.366  1.00 27.53     0.066 C 
HETATM   27  C25 VFQ F5620     -33.364 128.807   5.685  1.00 27.53    -0.074 C 
HETATM   28  C26 VFQ F5620     -33.838 128.134   6.761  1.00 27.53    -0.048 C 
HETATM   29  C27 VFQ F5620     -34.163 128.848   8.012  1.00 27.53     0.009 C 
HETATM   30  C28 VFQ F5620     -34.873 129.969   7.849  1.00 27.53     0.007 C 
HETATM   31  C29 VFQ F5620     -35.464 130.719   9.004  1.00 26.61    -0.062 C 
HETATM   32  C30 VFQ F5620     -36.160 131.836   8.702  1.00 25.24     0.007 C 
HETATM   33  C31 VFQ F5620     -36.856 132.687   9.621  1.00 26.40     0.001 C 
HETATM   34  C32 VFQ F5620     -37.481 133.805   9.206  1.00 26.29     0.007 C 
HETATM   35  C33 VFQ F5620     -38.221 134.789  10.004  1.00 26.99    -0.062 C 
HETATM   36  C34 VFQ F5620     -38.732 135.860   9.359  1.00 26.65     0.007 C 
HETATM   37  C35 VFQ F5620     -39.481 136.950   9.915  1.00 25.43     0.001 C 
HETATM   38  C36 VFQ F5620     -33.706 125.850   7.835  1.00 27.53     0.020 C 
HETATM   39  C37 VFQ F5620     -35.782 126.664   6.723  1.00 27.53     0.020 C 
HETATM   40  C38 VFQ F5620     -32.796 130.206   5.729  1.00 27.53     0.044 C 
HETATM   41  C39 VFQ F5620     -35.256 130.210  10.409  1.00 26.87     0.048 C 
HETATM   42  C40 VFQ F5620     -38.337 134.549  11.481  1.00 24.17     0.048 C 
HETATM   43  O23 VFQ F5620     -32.219 126.069   3.533  1.00 27.53    -0.395 OA
ATOM     44  H23 VFQ F5620     -31.878 125.209   3.751  1.00  0.00     0.210 HD
ENDROOT
TORSDOF 12
