REMARK VINA RESULT:   -11.981      0.000      0.000
REMARK INTER + INTRA:         -12.154
REMARK INTER:                 -11.981
REMARK INTRA:                  -0.172
REMARK UNBOUND:                -0.172
REMARK  0 active torsions:
REMARK  status: ('A' for Active; 'I' for Inactive)
REMARK       I    between atoms: C3_3  and  O3_21 
REMARK       I    between atoms: C6_6  and  C7_7 
REMARK       I    between atoms: C8_8  and  C9_9 
REMARK       I    between atoms: C10_10  and  C11_11 
REMARK       I    between atoms: C12_12  and  C13_13 
REMARK       I    between atoms: C14_14  and  C15_15 
REMARK       I    between atoms: C23_25  and  O23_43 
REMARK       I    between atoms: C26_28  and  C27_29 
REMARK       I    between atoms: C28_30  and  C29_31 
REMARK       I    between atoms: C30_32  and  C31_33 
REMARK       I    between atoms: C32_34  and  C33_35 
REMARK       I    between atoms: C34_36  and  C35_37 
ROOT
HETATM    1  C1  VFQ X1621     -34.235 128.094   6.945  1.00 31.86    -0.018 C 
HETATM    2  C2  VFQ X1621     -33.643 127.893   5.546  1.00 31.86     0.045 C 
HETATM    3  C3  VFQ X1621     -32.356 128.644   5.227  1.00 31.86     0.123 C 
HETATM    4  C4  VFQ X1621     -31.641 129.103   6.490  1.00 31.86     0.066 C 
HETATM    5  C5  VFQ X1621     -32.630 129.914   7.272  1.00 31.86    -0.074 C 
HETATM    6  C6  VFQ X1621     -33.762 129.336   7.669  1.00 31.86    -0.048 C 
HETATM    7  C7  VFQ X1621     -34.673 129.960   8.651  1.00 31.86     0.009 C 
HETATM    8  C8  VFQ X1621     -34.767 131.292   8.699  1.00 31.86     0.007 C 
HETATM    9  C9  VFQ X1621     -35.848 131.894   9.512  1.00 31.86    -0.062 C 
HETATM   10  C10 VFQ X1621     -36.263 133.126   9.153  1.00 31.86     0.007 C 
HETATM   11  C11 VFQ X1621     -37.426 133.785   9.745  1.00 31.86     0.001 C 
HETATM   12  C12 VFQ X1621     -37.932 134.866   9.156  1.00 31.86     0.007 C 
HETATM   13  C13 VFQ X1621     -39.160 135.518   9.661  1.00 31.86    -0.062 C 
HETATM   14  C14 VFQ X1621     -39.680 136.517   8.917  1.00 31.86     0.007 C 
HETATM   15  C15 VFQ X1621     -40.901 137.248   9.262  1.00 31.86     0.001 C 
HETATM   16  C16 VFQ X1621     -33.812 126.929   7.837  1.00 31.86     0.020 C 
HETATM   17  C17 VFQ X1621     -35.751 128.071   6.821  1.00 31.86     0.020 C 
HETATM   18  C18 VFQ X1621     -31.779 130.728   8.207  1.00 31.86     0.044 C 
HETATM   19  C19 VFQ X1621     -36.494 131.094  10.619  1.00 31.86     0.048 C 
HETATM   20  C20 VFQ X1621     -39.776 135.019  10.944  1.00 31.86     0.048 C 
HETATM   21  O3  VFQ X1621     -31.530 127.735   4.503  1.00 31.86    -0.395 OA
ATOM     22  H3  VFQ X1621     -31.977 127.449   3.715  1.00  0.00     0.210 HD
HETATM   23  C21 VFQ X1621     -50.637 145.542   9.348  1.00 66.61    -0.018 C 
HETATM   24  C22 VFQ X1621     -51.695 146.435   9.984  1.00 66.61     0.045 C 
HETATM   25  C23 VFQ X1621     -51.266 147.372  11.103  1.00 66.61     0.123 C 
HETATM   26  C24 VFQ X1621     -50.139 146.782  11.922  1.00 66.61     0.066 C 
HETATM   27  C25 VFQ X1621     -49.004 146.419  11.009  1.00 66.61    -0.074 C 
HETATM   28  C26 VFQ X1621     -49.227 145.774   9.859  1.00 66.61    -0.048 C 
HETATM   29  C27 VFQ X1621     -48.091 145.282   9.039  1.00 66.61     0.009 C 
HETATM   30  C28 VFQ X1621     -47.544 144.083   9.252  1.00 66.61     0.007 C 
HETATM   31  C29 VFQ X1621     -46.427 143.569   8.444  1.00 31.86    -0.062 C 
HETATM   32  C30 VFQ X1621     -45.918 142.372   8.806  1.00 31.86     0.007 C 
HETATM   33  C31 VFQ X1621     -44.776 141.734   8.152  1.00 31.86     0.001 C 
HETATM   34  C32 VFQ X1621     -44.271 140.620   8.679  1.00 31.86     0.007 C 
HETATM   35  C33 VFQ X1621     -43.070 139.968   8.116  1.00 31.86    -0.062 C 
HETATM   36  C34 VFQ X1621     -42.554 138.939   8.820  1.00 31.86     0.007 C 
HETATM   37  C35 VFQ X1621     -41.341 138.206   8.453  1.00 31.86     0.001 C 
HETATM   38  C36 VFQ X1621     -50.643 145.821   7.853  1.00 66.61     0.020 C 
HETATM   39  C37 VFQ X1621     -51.065 144.096   9.570  1.00 66.61     0.020 C 
HETATM   40  C38 VFQ X1621     -47.631 146.829  11.453  1.00 66.61     0.044 C 
HETATM   41  C39 VFQ X1621     -45.929 144.391   7.282  1.00 31.86     0.048 C 
HETATM   42  C40 VFQ X1621     -42.465 140.506   6.846  1.00 31.86     0.048 C 
HETATM   43  O23 VFQ X1621     -52.388 147.592  11.963  1.00 66.61    -0.395 OA
ATOM     44  H23 VFQ X1621     -53.095 147.963  11.449  1.00  0.00     0.210 HD
ENDROOT
TORSDOF 12
