REMARK VINA RESULT:   -10.359      0.000      0.000
REMARK INTER + INTRA:         -13.083
REMARK INTER:                 -10.359
REMARK INTRA:                  -2.724
REMARK UNBOUND:                -2.724
REMARK  0 active torsions:
REMARK  status: ('A' for Active; 'I' for Inactive)
REMARK       I    between atoms: C3_3  and  O3_21 
REMARK       I    between atoms: C6_6  and  C7_7 
REMARK       I    between atoms: C8_8  and  C9_9 
REMARK       I    between atoms: C10_10  and  C11_11 
REMARK       I    between atoms: C12_12  and  C13_13 
REMARK       I    between atoms: C14_14  and  C15_15 
REMARK       I    between atoms: C23_25  and  O23_43 
REMARK       I    between atoms: C26_28  and  C27_29 
REMARK       I    between atoms: C28_30  and  C29_31 
REMARK       I    between atoms: C30_32  and  C31_33 
REMARK       I    between atoms: C32_34  and  C33_35 
REMARK       I    between atoms: C34_36  and  C35_37 
ROOT
HETATM    1  C1  VFQ y1621     -47.464 145.489  12.687  1.00 37.79    -0.018 C 
HETATM    2  C2  VFQ y1621     -48.378 146.110  13.730  1.00 37.79     0.045 C 
HETATM    3  C3  VFQ y1621     -47.698 146.749  14.918  1.00 37.79     0.123 C 
HETATM    4  C4  VFQ y1621     -46.622 147.684  14.432  1.00 37.79     0.066 C 
HETATM    5  C5  VFQ y1621     -45.671 147.021  13.483  1.00 37.79    -0.074 C 
HETATM    6  C6  VFQ y1621     -46.065 146.068  12.626  1.00 37.79    -0.048 C 
HETATM    7  C7  VFQ y1621     -45.160 145.575  11.552  1.00 37.79     0.009 C 
HETATM    8  C8  VFQ y1621     -44.219 144.646  11.748  1.00 37.79     0.007 C 
HETATM    9  C9  VFQ y1621     -43.350 144.169  10.670  1.00 37.79    -0.062 C 
HETATM   10  C10 VFQ y1621     -42.852 142.941  10.809  1.00 37.79     0.007 C 
HETATM   11  C11 VFQ y1621     -41.989 142.276   9.849  1.00 37.79     0.001 C 
HETATM   12  C12 VFQ y1621     -41.740 141.017  10.172  1.00 37.79     0.007 C 
HETATM   13  C13 VFQ y1621     -40.935 140.066   9.403  1.00 37.79    -0.062 C 
HETATM   14  C14 VFQ y1621     -40.669 138.882   9.958  1.00 37.79     0.007 C 
HETATM   15  C15 VFQ y1621     -39.910 137.879   9.232  1.00 37.79     0.001 C 
HETATM   16  C16 VFQ y1621     -48.208 145.594  11.364  1.00 37.79     0.020 C 
HETATM   17  C17 VFQ y1621     -47.293 144.025  13.012  1.00 37.79     0.020 C 
HETATM   18  C18 VFQ y1621     -44.367 147.745  13.358  1.00 37.79     0.044 C 
HETATM   19  C19 VFQ y1621     -43.040 145.022   9.484  1.00 37.79     0.048 C 
HETATM   20  C20 VFQ y1621     -40.447 140.401   8.029  1.00 37.79     0.048 C 
HETATM   21  O3  VFQ y1621     -48.661 147.543  15.609  1.00 37.79    -0.395 OA
ATOM     22  H3  VFQ y1621     -48.232 147.945  16.356  1.00  0.00     0.210 HD
HETATM   23  C21 VFQ y1621     -34.391 126.718   6.457  1.00 26.19    -0.018 C 
HETATM   24  C22 VFQ y1621     -33.797 125.893   5.322  1.00 26.65     0.045 C 
HETATM   25  C23 VFQ y1621     -32.576 126.457   4.621  1.00 28.07     0.123 C 
HETATM   26  C24 VFQ y1621     -32.675 127.950   4.447  1.00 30.07     0.066 C 
HETATM   27  C25 VFQ y1621     -32.881 128.585   5.784  1.00 28.83    -0.074 C 
HETATM   28  C26 VFQ y1621     -33.821 128.119   6.613  1.00 27.49    -0.048 C 
HETATM   29  C27 VFQ y1621     -34.353 128.941   7.728  1.00 29.45     0.009 C 
HETATM   30  C28 VFQ y1621     -35.190 129.963   7.532  1.00 27.83     0.007 C 
HETATM   31  C29 VFQ y1621     -35.744 130.743   8.635  1.00 37.79    -0.062 C 
HETATM   32  C30 VFQ y1621     -36.739 131.575   8.340  1.00 37.79     0.007 C 
HETATM   33  C31 VFQ y1621     -37.413 132.431   9.298  1.00 37.79     0.001 C 
HETATM   34  C32 VFQ y1621     -37.764 133.612   8.820  1.00 37.79     0.007 C 
HETATM   35  C33 VFQ y1621     -38.466 134.609   9.627  1.00 37.79    -0.062 C 
HETATM   36  C34 VFQ y1621     -38.769 135.786   9.080  1.00 37.79     0.007 C 
HETATM   37  C35 VFQ y1621     -39.492 136.787   9.847  1.00 37.79     0.001 C 
HETATM   38  C36 VFQ y1621     -34.155 125.988   7.772  1.00 26.46     0.020 C 
HETATM   39  C37 VFQ y1621     -35.880 126.773   6.166  1.00 26.61     0.020 C 
HETATM   40  C38 VFQ y1621     -31.987 129.731   6.121  1.00 29.43     0.044 C 
HETATM   41  C39 VFQ y1621     -35.205 130.601  10.021  1.00 37.79     0.048 C 
HETATM   42  C40 VFQ y1621     -38.851 134.287  11.032  1.00 37.79     0.048 C 
HETATM   43  O23 VFQ y1621     -32.463 125.850   3.337  1.00 27.44    -0.395 OA
ATOM     44  H23 VFQ y1621     -31.698 126.203   2.898  1.00  0.00     0.210 HD
ENDROOT
TORSDOF 12
