REMARK VINA RESULT:    -7.675      0.000      0.000
REMARK INTER + INTRA:         -10.696
REMARK INTER:                  -7.675
REMARK INTRA:                  -3.020
REMARK UNBOUND:                -3.020
REMARK  0 active torsions:
REMARK  status: ('A' for Active; 'I' for Inactive)
REMARK       I    between atoms: C3_3  and  O3_21 
REMARK       I    between atoms: C6_6  and  C7_7 
REMARK       I    between atoms: C8_8  and  C9_9 
REMARK       I    between atoms: C10_10  and  C11_11 
REMARK       I    between atoms: C12_12  and  C13_13 
REMARK       I    between atoms: C14_14  and  C15_15 
REMARK       I    between atoms: C23_25  and  O23_43 
REMARK       I    between atoms: C26_28  and  C27_29 
REMARK       I    between atoms: C28_30  and  C29_31 
REMARK       I    between atoms: C30_32  and  C31_33 
REMARK       I    between atoms: C32_34  and  C33_35 
REMARK       I    between atoms: C34_36  and  C35_37 
ROOT
HETATM    1  C1  VFQ E4620     -34.489 126.899   6.085  1.00 19.12    -0.018 C 
HETATM    2  C2  VFQ E4620     -33.889 126.098   4.911  1.00 18.29     0.045 C 
HETATM    3  C3  VFQ E4620     -32.854 126.802   4.033  1.00 18.54     0.123 C 
HETATM    4  C4  VFQ E4620     -31.898 127.695   4.825  1.00 18.55     0.066 C 
HETATM    5  C5  VFQ E4620     -32.456 128.476   5.970  1.00 18.97    -0.074 C 
HETATM    6  C6  VFQ E4620     -33.655 128.128   6.575  1.00 18.68    -0.048 C 
HETATM    7  C7  VFQ E4620     -34.203 128.878   7.716  1.00 18.46     0.009 C 
HETATM    8  C8  VFQ E4620     -34.832 130.058   7.702  1.00 18.89     0.007 C 
HETATM    9  C9  VFQ E4620     -35.257 130.859   8.852  1.00 19.10    -0.062 C 
HETATM   10  C10 VFQ E4620     -35.976 131.976   8.603  1.00 18.99     0.007 C 
HETATM   11  C11 VFQ E4620     -36.511 132.893   9.562  1.00 18.78     0.001 C 
HETATM   12  C12 VFQ E4620     -37.360 133.834   9.143  1.00 19.28     0.007 C 
HETATM   13  C13 VFQ E4620     -38.076 134.830   9.940  1.00 21.25    -0.062 C 
HETATM   14  C14 VFQ E4620     -38.973 135.608   9.294  1.00 20.64     0.007 C 
HETATM   15  C15 VFQ E4620     -39.852 136.585   9.864  1.00 21.49     0.001 C 
HETATM   16  C16 VFQ E4620     -34.634 125.860   7.209  1.00 19.29     0.020 C 
HETATM   17  C17 VFQ E4620     -35.907 127.345   5.684  1.00 16.00     0.020 C 
HETATM   18  C18 VFQ E4620     -31.485 129.570   6.265  1.00 17.87     0.044 C 
HETATM   19  C19 VFQ E4620     -34.915 130.356  10.229  1.00 17.60     0.048 C 
HETATM   20  C20 VFQ E4620     -37.822 134.865  11.422  1.00 16.75     0.048 C 
HETATM   21  O3  VFQ E4620     -32.118 125.850   3.276  1.00 19.42    -0.395 OA
ATOM     22  H3  VFQ E4620     -31.474 126.287   2.731  1.00  0.00     0.210 HD
HETATM   23  C21 VFQ E4620     -49.444 144.386  12.720  1.00 93.31    -0.018 C 
HETATM   24  C22 VFQ E4620     -50.083 145.236  13.818  1.00 93.93     0.045 C 
HETATM   25  C23 VFQ E4620     -49.481 146.620  14.022  1.00 93.98     0.123 C 
HETATM   26  C24 VFQ E4620     -47.968 146.512  14.114  1.00 93.16     0.066 C 
HETATM   27  C25 VFQ E4620     -47.435 145.876  12.858  1.00 92.19    -0.074 C 
HETATM   28  C26 VFQ E4620     -48.080 144.869  12.260  1.00 91.50    -0.048 C 
HETATM   29  C27 VFQ E4620     -47.457 144.197  11.094  1.00 98.60     0.009 C 
HETATM   30  C28 VFQ E4620     -46.548 143.230  11.238  1.00 95.09     0.007 C 
HETATM   31  C29 VFQ E4620     -45.905 142.536  10.061  1.00 25.99    -0.062 C 
HETATM   32  C30 VFQ E4620     -44.998 141.576  10.336  1.00 24.86     0.007 C 
HETATM   33  C31 VFQ E4620     -44.287 140.765   9.385  1.00 24.61     0.001 C 
HETATM   34  C32 VFQ E4620     -43.360 139.872   9.792  1.00 23.19     0.007 C 
HETATM   35  C33 VFQ E4620     -42.514 138.978   8.991  1.00 22.76    -0.062 C 
HETATM   36  C34 VFQ E4620     -41.629 138.199   9.650  1.00 21.16     0.007 C 
HETATM   37  C35 VFQ E4620     -40.703 137.259   9.091  1.00 21.72     0.001 C 
HETATM   38  C36 VFQ E4620     -50.365 144.403  11.505  1.00 93.81     0.020 C 
HETATM   39  C37 VFQ E4620     -49.318 142.955  13.229  1.00 92.50     0.020 C 
HETATM   40  C38 VFQ E4620     -46.160 146.421  12.281  1.00 91.81     0.044 C 
HETATM   41  C39 VFQ E4620     -46.283 142.942   8.664  1.00 26.11     0.048 C 
HETATM   42  C40 VFQ E4620     -42.672 139.011   7.493  1.00 21.07     0.048 C 
HETATM   43  O23 VFQ E4620     -49.985 147.184  15.239  1.00 94.06    -0.395 OA
ATOM     44  H23 VFQ E4620     -49.609 148.047  15.366  1.00  0.00     0.210 HD
ENDROOT
TORSDOF 12
