REMARK VINA RESULT:   -11.346      2.053     16.765
REMARK INTER + INTRA:         -13.852
REMARK INTER:                 -11.406
REMARK INTRA:                  -2.446
REMARK UNBOUND:                -2.507
REMARK  0 active torsions:
REMARK  status: ('A' for Active; 'I' for Inactive)
REMARK       I    between atoms: C3_3  and  O3_21 
REMARK       I    between atoms: C6_6  and  C7_7 
REMARK       I    between atoms: C8_8  and  C9_9 
REMARK       I    between atoms: C10_10  and  C11_11 
REMARK       I    between atoms: C12_12  and  C13_13 
REMARK       I    between atoms: C14_14  and  C15_15 
REMARK       I    between atoms: C23_25  and  O23_43 
REMARK       I    between atoms: C26_28  and  C27_29 
REMARK       I    between atoms: C28_30  and  C29_31 
REMARK       I    between atoms: C30_32  and  C31_33 
REMARK       I    between atoms: C32_34  and  C33_35 
REMARK       I    between atoms: C34_36  and  C35_37 
ROOT
HETATM    1  C1  VFQ 1 619     -50.103 145.583   9.423  1.00 34.54    -0.018 C 
HETATM    2  C2  VFQ 1 619     -50.759 145.968  10.750  1.00 34.54     0.045 C 
HETATM    3  C3  VFQ 1 619     -50.054 146.981  11.653  1.00 34.54     0.123 C 
HETATM    4  C4  VFQ 1 619     -49.045 147.849  10.917  1.00 34.54     0.066 C 
HETATM    5  C5  VFQ 1 619     -48.141 146.952  10.122  1.00 34.54    -0.074 C 
HETATM    6  C6  VFQ 1 619     -48.653 146.022   9.310  1.00 34.54    -0.048 C 
HETATM    7  C7  VFQ 1 619     -47.785 145.425   8.267  1.00 34.54     0.009 C 
HETATM    8  C8  VFQ 1 619     -47.052 144.351   8.547  1.00 34.54     0.007 C 
HETATM    9  C9  VFQ 1 619     -46.150 143.695   7.587  1.00 34.54    -0.062 C 
HETATM   10  C10 VFQ 1 619     -45.342 142.777   8.114  1.00 34.54     0.007 C 
HETATM   11  C11 VFQ 1 619     -44.350 141.998   7.394  1.00 34.54     0.001 C 
HETATM   12  C12 VFQ 1 619     -43.694 141.149   8.174  1.00 34.54     0.007 C 
HETATM   13  C13 VFQ 1 619     -42.634 140.259   7.693  1.00 34.54    -0.062 C 
HETATM   14  C14 VFQ 1 619     -42.251 139.257   8.491  1.00 34.54     0.007 C 
HETATM   15  C15 VFQ 1 619     -41.195 138.344   8.086  1.00 34.54     0.001 C 
HETATM   16  C16 VFQ 1 619     -50.962 146.162   8.302  1.00 34.54     0.020 C 
HETATM   17  C17 VFQ 1 619     -50.137 144.067   9.287  1.00 34.54     0.020 C 
HETATM   18  C18 VFQ 1 619     -46.866 147.675   9.790  1.00 34.54     0.044 C 
HETATM   19  C19 VFQ 1 619     -46.129 144.033   6.128  1.00 34.54     0.048 C 
HETATM   20  C20 VFQ 1 619     -41.994 140.487   6.356  1.00 34.54     0.048 C 
HETATM   21  O3  VFQ 1 619     -51.042 147.827  12.249  1.00 34.54    -0.395 OA
ATOM     22  H3  VFQ 1 619     -51.673 147.285  12.708  1.00  0.00     0.210 HD
HETATM   23  C21 VFQ 1 619     -34.590 127.553   6.133  1.00 87.69    -0.018 C 
HETATM   24  C22 VFQ 1 619     -33.334 126.723   5.958  1.00 87.69     0.045 C 
HETATM   25  C23 VFQ 1 619     -32.009 127.475   5.965  1.00 87.69     0.123 C 
HETATM   26  C24 VFQ 1 619     -31.993 128.754   6.793  1.00 87.69     0.066 C 
HETATM   27  C25 VFQ 1 619     -33.218 128.926   7.653  1.00 87.69    -0.074 C 
HETATM   28  C26 VFQ 1 619     -34.427 128.583   7.218  1.00 87.69    -0.048 C 
HETATM   29  C27 VFQ 1 619     -35.648 129.176   7.813  1.00 87.69     0.009 C 
HETATM   30  C28 VFQ 1 619     -36.084 130.369   7.427  1.00 87.69     0.007 C 
HETATM   31  C29 VFQ 1 619     -37.300 130.971   7.983  1.00 34.54    -0.062 C 
HETATM   32  C30 VFQ 1 619     -37.489 132.287   7.834  1.00 34.54     0.007 C 
HETATM   33  C31 VFQ 1 619     -38.660 132.972   8.364  1.00 34.54     0.001 C 
HETATM   34  C32 VFQ 1 619     -38.687 134.294   8.242  1.00 34.54     0.007 C 
HETATM   35  C33 VFQ 1 619     -39.813 135.100   8.734  1.00 34.54    -0.062 C 
HETATM   36  C34 VFQ 1 619     -39.873 136.381   8.361  1.00 34.54     0.007 C 
HETATM   37  C35 VFQ 1 619     -40.946 137.257   8.803  1.00 34.54     0.001 C 
HETATM   38  C36 VFQ 1 619     -35.692 126.611   6.565  1.00 87.69     0.020 C 
HETATM   39  C37 VFQ 1 619     -35.005 128.196   4.813  1.00 87.69     0.020 C 
HETATM   40  C38 VFQ 1 619     -33.018 129.491   9.024  1.00 87.69     0.044 C 
HETATM   41  C39 VFQ 1 619     -38.301 130.124   8.712  1.00 34.54     0.048 C 
HETATM   42  C40 VFQ 1 619     -40.857 134.500   9.630  1.00 34.54     0.048 C 
HETATM   43  O23 VFQ 1 619     -31.713 127.820   4.613  1.00 87.69    -0.395 OA
ATOM     44  H23 VFQ 1 619     -31.723 127.023   4.097  1.00  0.00     0.210 HD
ENDROOT
TORSDOF 12
