REMARK VINA RESULT:   -10.343      1.138     16.705
REMARK INTER + INTRA:         -10.600
REMARK INTER:                  -7.416
REMARK INTRA:                  -3.183
REMARK UNBOUND:                -0.257
REMARK  0 active torsions:
REMARK  status: ('A' for Active; 'I' for Inactive)
REMARK       I    between atoms: C3_3  and  O3_21 
REMARK       I    between atoms: C6_6  and  C7_7 
REMARK       I    between atoms: C8_8  and  C9_9 
REMARK       I    between atoms: C10_10  and  C11_11 
REMARK       I    between atoms: C12_12  and  C13_13 
REMARK       I    between atoms: C14_14  and  C15_15 
REMARK       I    between atoms: C23_25  and  O23_43 
REMARK       I    between atoms: C26_28  and  C27_29 
REMARK       I    between atoms: C28_30  and  C29_31 
REMARK       I    between atoms: C30_32  and  C31_33 
REMARK       I    between atoms: C32_34  and  C33_35 
REMARK       I    between atoms: C34_36  and  C35_37 
ROOT
HETATM    1  C1  VFQ n1620     -34.477 126.806   6.121  1.00 57.79    -0.018 C 
HETATM    2  C2  VFQ n1620     -33.786 125.947   5.077  1.00 59.26     0.045 C 
HETATM    3  C3  VFQ n1620     -32.940 126.744   4.109  1.00 62.25     0.123 C 
HETATM    4  C4  VFQ n1620     -31.866 127.470   4.879  1.00 57.83     0.066 C 
HETATM    5  C5  VFQ n1620     -32.449 128.286   5.999  1.00 54.66    -0.074 C 
HETATM    6  C6  VFQ n1620     -33.633 127.991   6.581  1.00 55.29    -0.048 C 
HETATM    7  C7  VFQ n1620     -34.119 128.795   7.733  1.00 55.61     0.009 C 
HETATM    8  C8  VFQ n1620     -34.801 129.931   7.587  1.00 56.19     0.007 C 
HETATM    9  C9  VFQ n1620     -35.286 130.722   8.716  1.00 61.49    -0.062 C 
HETATM   10  C10 VFQ n1620     -36.014 131.785   8.390  1.00 57.47     0.007 C 
HETATM   11  C11 VFQ n1620     -36.605 132.701   9.340  1.00 53.29     0.001 C 
HETATM   12  C12 VFQ n1620     -37.379 133.609   8.775  1.00 52.45     0.007 C 
HETATM   13  C13 VFQ n1620     -38.101 134.607   9.558  1.00 52.04    -0.062 C 
HETATM   14  C14 VFQ n1620     -39.040 135.299   8.915  1.00 54.29     0.007 C 
HETATM   15  C15 VFQ n1620     -39.865 136.296   9.567  1.00 53.12     0.001 C 
HETATM   16  C16 VFQ n1620     -34.864 125.850   7.245  1.00 58.39     0.020 C 
HETATM   17  C17 VFQ n1620     -35.756 127.368   5.521  1.00 64.45     0.020 C 
HETATM   18  C18 VFQ n1620     -31.569 129.427   6.419  1.00 58.11     0.044 C 
HETATM   19  C19 VFQ n1620     -34.955 130.357  10.133  1.00 70.55     0.048 C 
HETATM   20  C20 VFQ n1620     -37.800 134.809  11.009  1.00 53.04     0.048 C 
HETATM   21  O3  VFQ n1620     -32.306 125.862   3.181  1.00 65.91    -0.395 OA
ATOM     22  H3  VFQ n1620     -31.775 126.362   2.573  1.00  0.00     0.210 HD
HETATM   23  C21 VFQ n1620     -49.751 143.976  11.427  1.00 17.81    -0.018 C 
HETATM   24  C22 VFQ n1620     -50.427 144.747  12.581  1.00 18.03     0.045 C 
HETATM   25  C23 VFQ n1620     -49.955 146.180  12.800  1.00 19.41     0.123 C 
HETATM   26  C24 VFQ n1620     -48.432 146.302  12.787  1.00 18.47     0.066 C 
HETATM   27  C25 VFQ n1620     -47.726 145.522  11.726  1.00 18.29    -0.074 C 
HETATM   28  C26 VFQ n1620     -48.304 144.441  11.072  1.00 18.07    -0.048 C 
HETATM   29  C27 VFQ n1620     -47.575 143.692  10.021  1.00 17.25     0.009 C 
HETATM   30  C28 VFQ n1620     -46.634 142.749  10.211  1.00 17.01     0.007 C 
HETATM   31  C29 VFQ n1620     -45.837 142.104   9.198  1.00 71.47    -0.062 C 
HETATM   32  C30 VFQ n1620     -45.107 141.062   9.585  1.00 69.97     0.007 C 
HETATM   33  C31 VFQ n1620     -44.266 140.263   8.715  1.00 65.68     0.001 C 
HETATM   34  C32 VFQ n1620     -43.513 139.390   9.358  1.00 62.75     0.007 C 
HETATM   35  C33 VFQ n1620     -42.616 138.461   8.668  1.00 61.08    -0.062 C 
HETATM   36  C34 VFQ n1620     -41.758 137.767   9.419  1.00 59.90     0.007 C 
HETATM   37  C35 VFQ n1620     -40.855 136.791   8.841  1.00 55.64     0.001 C 
HETATM   38  C36 VFQ n1620     -50.644 144.020  10.180  1.00 16.04     0.020 C 
HETATM   39  C37 VFQ n1620     -49.754 142.531  11.931  1.00 17.79     0.020 C 
HETATM   40  C38 VFQ n1620     -46.381 146.139  11.560  1.00 17.18     0.044 C 
HETATM   41  C39 VFQ n1620     -45.855 142.593   7.783  1.00 74.91     0.048 C 
HETATM   42  C40 VFQ n1620     -42.694 138.288   7.183  1.00 55.73     0.048 C 
HETATM   43  O23 VFQ n1620     -50.484 146.707  14.010  1.00 19.31    -0.395 OA
ATOM     44  H23 VFQ n1620     -51.431 146.631  14.018  1.00  0.00     0.210 HD
ENDROOT
TORSDOF 12
