REMARK VINA RESULT:   -11.131      0.000      0.000
REMARK INTER + INTRA:         -11.482
REMARK INTER:                 -11.131
REMARK INTRA:                  -0.351
REMARK UNBOUND:                -0.351
REMARK  0 active torsions:
REMARK  status: ('A' for Active; 'I' for Inactive)
REMARK       I    between atoms: C3_3  and  O3_21 
REMARK       I    between atoms: C6_6  and  C7_7 
REMARK       I    between atoms: C8_8  and  C9_9 
REMARK       I    between atoms: C10_10  and  C11_11 
REMARK       I    between atoms: C12_12  and  C13_13 
REMARK       I    between atoms: C14_14  and  C15_15 
REMARK       I    between atoms: C23_25  and  O23_43 
REMARK       I    between atoms: C26_28  and  C27_29 
REMARK       I    between atoms: C28_30  and  C29_31 
REMARK       I    between atoms: C30_32  and  C31_33 
REMARK       I    between atoms: C32_34  and  C33_35 
REMARK       I    between atoms: C34_36  and  C35_37 
ROOT
HETATM    1  C1  VFQ S1620     -34.298 128.054   6.763  1.00 51.40    -0.018 C 
HETATM    2  C2  VFQ S1620     -33.714 127.585   5.438  1.00 51.40     0.045 C 
HETATM    3  C3  VFQ S1620     -32.349 128.099   5.000  1.00 51.40     0.123 C 
HETATM    4  C4  VFQ S1620     -31.565 128.735   6.126  1.00 51.40     0.066 C 
HETATM    5  C5  VFQ S1620     -32.441 129.691   6.867  1.00 51.40    -0.074 C 
HETATM    6  C6  VFQ S1620     -33.612 129.274   7.334  1.00 51.40    -0.048 C 
HETATM    7  C7  VFQ S1620     -34.271 129.981   8.447  1.00 51.40     0.009 C 
HETATM    8  C8  VFQ S1620     -34.963 131.087   8.217  1.00 51.40     0.007 C 
HETATM    9  C9  VFQ S1620     -35.651 131.790   9.296  1.00 51.40    -0.062 C 
HETATM   10  C10 VFQ S1620     -36.284 132.906   8.945  1.00 51.40     0.007 C 
HETATM   11  C11 VFQ S1620     -37.061 133.752   9.827  1.00 51.40     0.001 C 
HETATM   12  C12 VFQ S1620     -37.834 134.584   9.150  1.00 51.40     0.007 C 
HETATM   13  C13 VFQ S1620     -38.756 135.534   9.766  1.00 51.40    -0.062 C 
HETATM   14  C14 VFQ S1620     -39.553 136.220   8.946  1.00 51.40     0.007 C 
HETATM   15  C15 VFQ S1620     -40.545 137.154   9.442  1.00 51.40     0.001 C 
HETATM   16  C16 VFQ S1620     -34.278 126.874   7.726  1.00 51.40     0.020 C 
HETATM   17  C17 VFQ S1620     -35.749 128.432   6.523  1.00 51.40     0.020 C 
HETATM   18  C18 VFQ S1620     -31.510 130.547   7.668  1.00 51.40     0.044 C 
HETATM   19  C19 VFQ S1620     -35.635 131.250  10.692  1.00 51.40     0.048 C 
HETATM   20  C20 VFQ S1620     -38.803 135.705  11.248  1.00 51.40     0.048 C 
HETATM   21  O3  VFQ S1620     -31.581 126.993   4.523  1.00 51.40    -0.395 OA
ATOM     22  H3  VFQ S1620     -32.073 126.593   3.816  1.00  0.00     0.210 HD
HETATM   23  C21 VFQ S1620     -50.806 144.084  10.875  1.00 13.75    -0.018 C 
HETATM   24  C22 VFQ S1620     -51.847 144.651  11.827  1.00 13.75     0.045 C 
HETATM   25  C23 VFQ S1620     -51.636 146.112  12.151  1.00 13.75     0.123 C 
HETATM   26  C24 VFQ S1620     -50.255 146.278  12.726  1.00 13.75     0.066 C 
HETATM   27  C25 VFQ S1620     -49.238 145.829  11.719  1.00 13.75    -0.074 C 
HETATM   28  C26 VFQ S1620     -49.453 144.780  10.908  1.00 13.75    -0.048 C 
HETATM   29  C27 VFQ S1620     -48.421 144.266   9.961  1.00 13.75     0.009 C 
HETATM   30  C28 VFQ S1620     -47.392 143.479  10.299  1.00 13.75     0.007 C 
HETATM   31  C29 VFQ S1620     -46.441 142.990   9.298  1.00 51.40    -0.062 C 
HETATM   32  C30 VFQ S1620     -45.836 141.827   9.547  1.00 51.40     0.007 C 
HETATM   33  C31 VFQ S1620     -44.887 141.196   8.643  1.00 51.40     0.001 C 
HETATM   34  C32 VFQ S1620     -44.144 140.236   9.171  1.00 51.40     0.007 C 
HETATM   35  C33 VFQ S1620     -43.153 139.461   8.413  1.00 51.40    -0.062 C 
HETATM   36  C34 VFQ S1620     -42.362 138.655   9.123  1.00 51.40     0.007 C 
HETATM   37  C35 VFQ S1620     -41.350 137.768   8.580  1.00 51.40     0.001 C 
HETATM   38  C36 VFQ S1620     -51.341 144.227   9.458  1.00 13.75     0.020 C 
HETATM   39  C37 VFQ S1620     -50.672 142.608  11.218  1.00 13.75     0.020 C 
HETATM   40  C38 VFQ S1620     -47.995 146.656  11.681  1.00 13.75     0.044 C 
HETATM   41  C39 VFQ S1620     -46.163 143.768   8.050  1.00 51.40     0.048 C 
HETATM   42  C40 VFQ S1620     -43.069 139.558   6.922  1.00 51.40     0.048 C 
HETATM   43  O23 VFQ S1620     -52.600 146.537  13.116  1.00 13.75    -0.395 OA
ATOM     44  H23 VFQ S1620     -53.471 146.432  12.754  1.00  0.00     0.210 HD
ENDROOT
TORSDOF 12
