REMARK VINA RESULT:    -5.661      1.454     16.802
REMARK INTER + INTRA:          -8.822
REMARK INTER:                  -5.560
REMARK INTRA:                  -3.262
REMARK UNBOUND:                -3.161
REMARK  0 active torsions:
REMARK  status: ('A' for Active; 'I' for Inactive)
REMARK       I    between atoms: C3_3  and  O3_21 
REMARK       I    between atoms: C6_6  and  C7_7 
REMARK       I    between atoms: C8_8  and  C9_9 
REMARK       I    between atoms: C10_10  and  C11_11 
REMARK       I    between atoms: C12_12  and  C13_13 
REMARK       I    between atoms: C14_14  and  C15_15 
REMARK       I    between atoms: C23_25  and  O23_43 
REMARK       I    between atoms: C26_28  and  C27_29 
REMARK       I    between atoms: C28_30  and  C29_31 
REMARK       I    between atoms: C30_32  and  C31_33 
REMARK       I    between atoms: C32_34  and  C33_35 
REMARK       I    between atoms: C34_36  and  C35_37 
ROOT
HETATM    1  C1  VFQ 9 616     -49.352 145.602  12.885  1.00 62.55    -0.018 C 
HETATM    2  C2  VFQ 9 616     -49.909 145.880  14.280  1.00 62.55     0.045 C 
HETATM    3  C3  VFQ 9 616     -49.179 146.893  15.157  1.00 62.55     0.123 C 
HETATM    4  C4  VFQ 9 616     -48.567 148.002  14.324  1.00 62.55     0.066 C 
HETATM    5  C5  VFQ 9 616     -47.628 147.347  13.347  1.00 62.55    -0.074 C 
HETATM    6  C6  VFQ 9 616     -48.041 146.317  12.601  1.00 62.55    -0.048 C 
HETATM    7  C7  VFQ 9 616     -47.214 145.875  11.454  1.00 62.55     0.009 C 
HETATM    8  C8  VFQ 9 616     -46.272 144.947  11.594  1.00 62.55     0.007 C 
HETATM    9  C9  VFQ 9 616     -45.444 144.510  10.463  1.00 62.55    -0.062 C 
HETATM   10  C10 VFQ 9 616     -44.653 143.454  10.665  1.00 62.55     0.007 C 
HETATM   11  C11 VFQ 9 616     -43.754 142.889   9.669  1.00 62.55     0.001 C 
HETATM   12  C12 VFQ 9 616     -43.199 141.746  10.044  1.00 62.55     0.007 C 
HETATM   13  C13 VFQ 9 616     -42.244 140.970   9.252  1.00 62.55    -0.062 C 
HETATM   14  C14 VFQ 9 616     -41.764 139.828   9.780  1.00 62.55     0.007 C 
HETATM   15  C15 VFQ 9 616     -40.810 138.934   9.129  1.00 62.55     0.001 C 
HETATM   16  C16 VFQ 9 616     -50.435 145.983  11.874  1.00 62.55     0.020 C 
HETATM   17  C17 VFQ 9 616     -49.092 144.107  12.767  1.00 62.55     0.020 C 
HETATM   18  C18 VFQ 9 616     -46.509 148.245  12.906  1.00 62.55     0.044 C 
HETATM   19  C19 VFQ 9 616     -45.495 145.229   9.151  1.00 62.55     0.048 C 
HETATM   20  C20 VFQ 9 616     -41.844 141.495   7.916  1.00 62.55     0.048 C 
HETATM   21  O3  VFQ 9 616     -50.106 147.462  16.089  1.00 62.55    -0.395 OA
ATOM     22  H3  VFQ 9 616     -49.652 148.092  16.636  1.00  0.00     0.210 HD
HETATM   23  C21 VFQ 9 616     -34.536 128.459   6.268  1.00 43.24    -0.018 C 
HETATM   24  C22 VFQ 9 616     -33.516 127.572   5.550  1.00 43.24     0.045 C 
HETATM   25  C23 VFQ 9 616     -32.040 127.721   5.913  1.00 43.24     0.123 C 
HETATM   26  C24 VFQ 9 616     -31.702 129.114   6.406  1.00 43.24     0.066 C 
HETATM   27  C25 VFQ 9 616     -32.632 129.469   7.531  1.00 43.24    -0.074 C 
HETATM   28  C26 VFQ 9 616     -33.951 129.280   7.409  1.00 43.24    -0.048 C 
HETATM   29  C27 VFQ 9 616     -34.855 129.877   8.426  1.00 43.24     0.009 C 
HETATM   30  C28 VFQ 9 616     -35.364 131.099   8.258  1.00 43.24     0.007 C 
HETATM   31  C29 VFQ 9 616     -36.249 131.757   9.235  1.00 62.55    -0.062 C 
HETATM   32  C30 VFQ 9 616     -36.912 132.853   8.832  1.00 62.55     0.007 C 
HETATM   33  C31 VFQ 9 616     -37.844 133.624   9.650  1.00 62.55     0.001 C 
HETATM   34  C32 VFQ 9 616     -38.290 134.758   9.108  1.00 62.55     0.007 C 
HETATM   35  C33 VFQ 9 616     -39.239 135.682   9.756  1.00 62.55    -0.062 C 
HETATM   36  C34 VFQ 9 616     -39.567 136.832   9.138  1.00 62.55     0.007 C 
HETATM   37  C35 VFQ 9 616     -40.508 137.782   9.733  1.00 62.55     0.001 C 
HETATM   38  C36 VFQ 9 616     -35.626 127.574   6.855  1.00 43.24     0.020 C 
HETATM   39  C37 VFQ 9 616     -35.175 129.347   5.205  1.00 43.24     0.020 C 
HETATM   40  C38 VFQ 9 616     -32.019 130.021   8.788  1.00 43.24     0.044 C 
HETATM   41  C39 VFQ 9 616     -36.410 131.219  10.625  1.00 62.55     0.048 C 
HETATM   42  C40 VFQ 9 616     -39.830 135.324  11.085  1.00 62.55     0.048 C 
HETATM   43  O23 VFQ 9 616     -31.246 127.449   4.755  1.00 43.24    -0.395 OA
ATOM     44  H23 VFQ 9 616     -30.329 127.542   4.981  1.00  0.00     0.210 HD
ENDROOT
TORSDOF 12
