REMARK VINA RESULT:    -7.678      1.381      2.021
REMARK INTER + INTRA:         -10.043
REMARK INTER:                  -7.943
REMARK INTRA:                  -2.100
REMARK UNBOUND:                -2.365
REMARK  0 active torsions:
REMARK  status: ('A' for Active; 'I' for Inactive)
REMARK       I    between atoms: C3_3  and  O3_21 
REMARK       I    between atoms: C6_6  and  C7_7 
REMARK       I    between atoms: C8_8  and  C9_9 
REMARK       I    between atoms: C10_10  and  C11_11 
REMARK       I    between atoms: C12_12  and  C13_13 
REMARK       I    between atoms: C14_14  and  C15_15 
REMARK       I    between atoms: C23_25  and  O23_43 
REMARK       I    between atoms: C26_28  and  C27_29 
REMARK       I    between atoms: C28_30  and  C29_31 
REMARK       I    between atoms: C30_32  and  C31_33 
REMARK       I    between atoms: C32_34  and  C33_35 
REMARK       I    between atoms: C34_36  and  C35_37 
ROOT
HETATM    1  C1  VFQ V1620     -33.641 129.277   6.961  1.00 15.23    -0.018 C 
HETATM    2  C2  VFQ V1620     -32.762 129.873   5.879  1.00 15.23     0.045 C 
HETATM    3  C3  VFQ V1620     -31.846 130.974   6.346  1.00 15.23     0.123 C 
HETATM    4  C4  VFQ V1620     -31.179 130.508   7.606  1.00 15.23     0.066 C 
HETATM    5  C5  VFQ V1620     -32.195 130.275   8.680  1.00 15.23    -0.074 C 
HETATM    6  C6  VFQ V1620     -33.399 129.799   8.355  1.00 15.23    -0.048 C 
HETATM    7  C7  VFQ V1620     -34.577 130.036   9.195  1.00 15.23     0.009 C 
HETATM    8  C8  VFQ V1620     -34.763 131.336   9.437  1.00 15.23     0.007 C 
HETATM    9  C9  VFQ V1620     -35.991 131.835  10.085  1.00 15.23    -0.062 C 
HETATM   10  C10 VFQ V1620     -36.237 133.148   9.986  1.00 15.23     0.007 C 
HETATM   11  C11 VFQ V1620     -37.467 133.774  10.452  1.00 15.23     0.001 C 
HETATM   12  C12 VFQ V1620     -37.738 135.019  10.089  1.00 15.23     0.007 C 
HETATM   13  C13 VFQ V1620     -39.011 135.661  10.443  1.00 15.23    -0.062 C 
HETATM   14  C14 VFQ V1620     -39.291 136.829   9.856  1.00 15.23     0.007 C 
HETATM   15  C15 VFQ V1620     -40.530 137.572  10.057  1.00 15.23     0.001 C 
HETATM   16  C16 VFQ V1620     -33.286 127.805   7.036  1.00 15.23     0.020 C 
HETATM   17  C17 VFQ V1620     -35.090 129.469   6.553  1.00 15.23     0.020 C 
HETATM   18  C18 VFQ V1620     -31.866 130.922   9.994  1.00 15.23     0.044 C 
HETATM   19  C19 VFQ V1620     -36.922 130.877  10.771  1.00 15.23     0.048 C 
HETATM   20  C20 VFQ V1620     -39.936 134.972  11.388  1.00 15.23     0.048 C 
HETATM   21  O3  VFQ V1620     -30.819 131.171   5.382  1.00 15.23    -0.395 OA
ATOM     22  H3  VFQ V1620     -30.241 131.865   5.677  1.00  0.00     0.210 HD
HETATM   23  C21 VFQ V1620     -50.093 145.391   8.980  1.00 50.20    -0.018 C 
HETATM   24  C22 VFQ V1620     -51.407 146.025   9.422  1.00 50.20     0.045 C 
HETATM   25  C23 VFQ V1620     -51.313 147.084  10.509  1.00 50.20     0.123 C 
HETATM   26  C24 VFQ V1620     -50.311 146.696  11.575  1.00 50.20     0.066 C 
HETATM   27  C25 VFQ V1620     -48.979 146.527  10.907  1.00 50.20    -0.074 C 
HETATM   28  C26 VFQ V1620     -48.878 145.883   9.744  1.00 50.20    -0.048 C 
HETATM   29  C27 VFQ V1620     -47.544 145.628   9.161  1.00 50.20     0.009 C 
HETATM   30  C28 VFQ V1620     -46.889 144.514   9.473  1.00 50.20     0.007 C 
HETATM   31  C29 VFQ V1620     -45.568 144.199   8.917  1.00 15.23    -0.062 C 
HETATM   32  C30 VFQ V1620     -45.102 142.988   9.231  1.00 15.23     0.007 C 
HETATM   33  C31 VFQ V1620     -43.828 142.437   8.806  1.00 15.23     0.001 C 
HETATM   34  C32 VFQ V1620     -43.499 141.240   9.274  1.00 15.23     0.007 C 
HETATM   35  C33 VFQ V1620     -42.221 140.600   8.952  1.00 15.23    -0.062 C 
HETATM   36  C34 VFQ V1620     -41.949 139.440   9.564  1.00 15.23     0.007 C 
HETATM   37  C35 VFQ V1620     -40.715 138.690   9.378  1.00 15.23     0.001 C 
HETATM   38  C36 VFQ V1620     -49.871 145.715   7.510  1.00 50.20     0.020 C 
HETATM   39  C37 VFQ V1620     -50.234 143.880   9.130  1.00 50.20     0.020 C 
HETATM   40  C38 VFQ V1620     -47.781 147.120  11.583  1.00 50.20     0.044 C 
HETATM   41  C39 VFQ V1620     -44.869 145.180   8.030  1.00 15.23     0.048 C 
HETATM   42  C40 VFQ V1620     -41.308 141.288   7.992  1.00 15.23     0.048 C 
HETATM   43  O23 VFQ V1620     -52.599 147.255  11.108  1.00 50.20    -0.395 OA
ATOM     44  H23 VFQ V1620     -53.228 147.499  10.438  1.00  0.00     0.210 HD
ENDROOT
TORSDOF 12
