REMARK VINA RESULT:    -6.767      1.667      2.677
REMARK INTER + INTRA:          -8.844
REMARK INTER:                  -7.238
REMARK INTRA:                  -1.606
REMARK UNBOUND:                -2.077
REMARK  0 active torsions:
REMARK  status: ('A' for Active; 'I' for Inactive)
REMARK       I    between atoms: C3_3  and  O3_21 
REMARK       I    between atoms: C6_6  and  C7_7 
REMARK       I    between atoms: C8_8  and  C9_9 
REMARK       I    between atoms: C10_10  and  C11_11 
REMARK       I    between atoms: C12_12  and  C13_13 
REMARK       I    between atoms: C14_14  and  C15_15 
REMARK       I    between atoms: C23_25  and  O23_43 
REMARK       I    between atoms: C26_28  and  C27_29 
REMARK       I    between atoms: C28_30  and  C29_31 
REMARK       I    between atoms: C30_32  and  C31_33 
REMARK       I    between atoms: C32_34  and  C33_35 
REMARK       I    between atoms: C34_36  and  C35_37 
ROOT
HETATM    1  C1  VFQ 8 618     -47.928 147.110  10.049  1.00 13.13    -0.018 C 
HETATM    2  C2  VFQ 8 618     -49.330 147.683  10.194  1.00 13.13     0.045 C 
HETATM    3  C3  VFQ 8 618     -49.981 147.449  11.537  1.00 13.13     0.123 C 
HETATM    4  C4  VFQ 8 618     -49.058 147.913  12.634  1.00 13.13     0.066 C 
HETATM    5  C5  VFQ 8 618     -47.717 147.242  12.532  1.00 13.13    -0.074 C 
HETATM    6  C6  VFQ 8 618     -47.156 146.940  11.349  1.00 13.13    -0.048 C 
HETATM    7  C7  VFQ 8 618     -45.740 146.486  11.243  1.00 13.13     0.009 C 
HETATM    8  C8  VFQ 8 618     -45.322 145.231  11.458  1.00 13.13     0.007 C 
HETATM    9  C9  VFQ 8 618     -43.909 144.833  11.320  1.00 13.13    -0.062 C 
HETATM   10  C10 VFQ 8 618     -43.655 143.536  11.134  1.00 13.13     0.007 C 
HETATM   11  C11 VFQ 8 618     -42.327 142.963  10.950  1.00 13.13     0.001 C 
HETATM   12  C12 VFQ 8 618     -42.358 141.717  10.502  1.00 13.13     0.007 C 
HETATM   13  C13 VFQ 8 618     -41.219 140.845  10.180  1.00 13.13    -0.062 C 
HETATM   14  C14 VFQ 8 618     -41.465 139.540   9.991  1.00 13.13     0.007 C 
HETATM   15  C15 VFQ 8 618     -40.408 138.610   9.629  1.00 13.13     0.001 C 
HETATM   16  C16 VFQ 8 618     -47.205 148.054   9.103  1.00 13.13     0.020 C 
HETATM   17  C17 VFQ 8 618     -48.040 145.729   9.424  1.00 13.13     0.020 C 
HETATM   18  C18 VFQ 8 618     -46.945 147.266  13.815  1.00 13.13     0.044 C 
HETATM   19  C19 VFQ 8 618     -42.802 145.840  11.385  1.00 13.13     0.048 C 
HETATM   20  C20 VFQ 8 618     -39.837 141.391  10.025  1.00 13.13     0.048 C 
HETATM   21  O3  VFQ 8 618     -51.178 148.225  11.599  1.00 13.13    -0.395 OA
ATOM     22  H3  VFQ 8 618     -51.760 147.933  10.908  1.00  0.00     0.210 HD
HETATM   23  C21 VFQ 8 618     -34.458 127.796   6.009  1.00 47.88    -0.018 C 
HETATM   24  C22 VFQ 8 618     -33.180 127.745   5.196  1.00 47.88     0.045 C 
HETATM   25  C23 VFQ 8 618     -31.977 127.684   6.114  1.00 47.88     0.123 C 
HETATM   26  C24 VFQ 8 618     -31.889 128.982   6.896  1.00 47.88     0.066 C 
HETATM   27  C25 VFQ 8 618     -33.187 129.241   7.612  1.00 47.88    -0.074 C 
HETATM   28  C26 VFQ 8 618     -34.360 128.817   7.126  1.00 47.88    -0.048 C 
HETATM   29  C27 VFQ 8 618     -35.618 129.333   7.702  1.00 47.88     0.009 C 
HETATM   30  C28 VFQ 8 618     -36.081 130.536   7.376  1.00 47.88     0.007 C 
HETATM   31  C29 VFQ 8 618     -37.352 131.024   7.957  1.00 13.13    -0.062 C 
HETATM   32  C30 VFQ 8 618     -37.590 132.326   7.795  1.00 13.13     0.007 C 
HETATM   33  C31 VFQ 8 618     -38.779 133.017   8.262  1.00 13.13     0.001 C 
HETATM   34  C32 VFQ 8 618     -38.636 134.300   8.562  1.00 13.13     0.007 C 
HETATM   35  C33 VFQ 8 618     -39.769 135.112   9.019  1.00 13.13    -0.062 C 
HETATM   36  C34 VFQ 8 618     -39.637 136.440   8.991  1.00 13.13     0.007 C 
HETATM   37  C35 VFQ 8 618     -40.705 137.341   9.388  1.00 13.13     0.001 C 
HETATM   38  C36 VFQ 8 618     -34.719 126.429   6.628  1.00 47.88     0.020 C 
HETATM   39  C37 VFQ 8 618     -35.608 128.128   5.067  1.00 47.88     0.020 C 
HETATM   40  C38 VFQ 8 618     -33.106 129.997   8.907  1.00 47.88     0.044 C 
HETATM   41  C39 VFQ 8 618     -38.314 130.115   8.656  1.00 13.13     0.048 C 
HETATM   42  C40 VFQ 8 618     -41.029 134.468   9.493  1.00 13.13     0.048 C 
HETATM   43  O23 VFQ 8 618     -30.790 127.496   5.343  1.00 47.88    -0.395 OA
ATOM     44  H23 VFQ 8 618     -30.036 127.457   5.919  1.00  0.00     0.210 HD
ENDROOT
TORSDOF 12
