REMARK VINA RESULT:    -7.201      0.682     17.107
REMARK INTER + INTRA:         -10.051
REMARK INTER:                  -7.534
REMARK INTRA:                  -2.517
REMARK UNBOUND:                -2.850
REMARK  0 active torsions:
REMARK  status: ('A' for Active; 'I' for Inactive)
REMARK       I    between atoms: C3_3  and  O3_21 
REMARK       I    between atoms: C6_6  and  C7_7 
REMARK       I    between atoms: C8_8  and  C9_9 
REMARK       I    between atoms: C10_10  and  C11_11 
REMARK       I    between atoms: C12_12  and  C13_13 
REMARK       I    between atoms: C14_14  and  C15_15 
REMARK       I    between atoms: C23_25  and  O23_43 
REMARK       I    between atoms: C26_28  and  C27_29 
REMARK       I    between atoms: C28_30  and  C29_31 
REMARK       I    between atoms: C30_32  and  C31_33 
REMARK       I    between atoms: C32_34  and  C33_35 
REMARK       I    between atoms: C34_36  and  C35_37 
ROOT
HETATM    1  C1  VFQ J9621     -34.662 127.458   6.164  1.00 21.11    -0.018 C 
HETATM    2  C2  VFQ J9621     -34.269 126.847   4.808  1.00 20.11     0.045 C 
HETATM    3  C3  VFQ J9621     -32.869 127.086   4.242  1.00 19.41     0.123 C 
HETATM    4  C4  VFQ J9621     -31.969 128.034   5.048  1.00 18.39     0.066 C 
HETATM    5  C5  VFQ J9621     -32.482 128.808   6.216  1.00 18.34    -0.074 C 
HETATM    6  C6  VFQ J9621     -33.717 128.562   6.772  1.00 19.81    -0.048 C 
HETATM    7  C7  VFQ J9621     -34.271 129.253   7.957  1.00 19.02     0.009 C 
HETATM    8  C8  VFQ J9621     -34.861 130.464   7.940  1.00 17.97     0.007 C 
HETATM    9  C9  VFQ J9621     -35.432 131.204   9.070  1.00 18.85    -0.062 C 
HETATM   10  C10 VFQ J9621     -36.091 132.353   8.792  1.00 18.38     0.007 C 
HETATM   11  C11 VFQ J9621     -36.804 133.200   9.720  1.00 18.57     0.001 C 
HETATM   12  C12 VFQ J9621     -37.498 134.285   9.311  1.00 17.11     0.007 C 
HETATM   13  C13 VFQ J9621     -38.330 135.180  10.129  1.00 20.42    -0.062 C 
HETATM   14  C14 VFQ J9621     -38.973 136.194   9.507  1.00 20.50     0.007 C 
HETATM   15  C15 VFQ J9621     -39.869 137.149  10.112  1.00 20.22     0.001 C 
HETATM   16  C16 VFQ J9621     -34.750 126.232   7.107  1.00 19.56     0.020 C 
HETATM   17  C17 VFQ J9621     -36.089 128.011   5.969  1.00 18.49     0.020 C 
HETATM   18  C18 VFQ J9621     -31.426 129.750   6.664  1.00 16.89     0.044 C 
HETATM   19  C19 VFQ J9621     -35.307 130.595  10.438  1.00 14.61     0.048 C 
HETATM   20  C20 VFQ J9621     -38.444 134.891  11.609  1.00 17.59     0.048 C 
HETATM   21  O3  VFQ J9621     -32.211 125.850   4.027  1.00 18.27    -0.395 OA
ATOM     22  H3  VFQ J9621     -31.342 125.998   3.675  1.00  0.00     0.210 HD
HETATM   23  C21 VFQ J9621     -48.119 146.511  13.219  1.00 57.17    -0.018 C 
HETATM   24  C22 VFQ J9621     -48.845 147.301  14.300  1.00 57.17     0.045 C 
HETATM   25  C23 VFQ J9621     -47.993 148.040  15.315  1.00 57.17     0.123 C 
HETATM   26  C24 VFQ J9621     -46.755 147.240  15.654  1.00 57.17     0.066 C 
HETATM   27  C25 VFQ J9621     -45.987 146.986  14.389  1.00 57.17    -0.074 C 
HETATM   28  C26 VFQ J9621     -46.608 146.515  13.301  1.00 57.17    -0.048 C 
HETATM   29  C27 VFQ J9621     -45.845 146.002  12.131  1.00 57.17     0.009 C 
HETATM   30  C28 VFQ J9621     -45.339 144.766  12.105  1.00 57.17     0.007 C 
HETATM   31  C29 VFQ J9621     -44.584 144.183  10.961  1.00 19.55    -0.062 C 
HETATM   32  C30 VFQ J9621     -44.090 142.931  11.096  1.00 17.66     0.007 C 
HETATM   33  C31 VFQ J9621     -43.329 142.200  10.112  1.00 19.12     0.001 C 
HETATM   34  C32 VFQ J9621     -42.729 141.019  10.388  1.00 19.40     0.007 C 
HETATM   35  C33 VFQ J9621     -41.895 140.166   9.522  1.00 19.31    -0.062 C 
HETATM   36  C34 VFQ J9621     -41.326 139.074  10.075  1.00 17.72     0.007 C 
HETATM   37  C35 VFQ J9621     -40.441 138.143   9.432  1.00 19.92     0.001 C 
HETATM   38  C36 VFQ J9621     -48.483 147.133  11.889  1.00 57.17     0.020 C 
HETATM   39  C37 VFQ J9621     -48.661 145.090  13.270  1.00 57.17     0.020 C 
HETATM   40  C38 VFQ J9621     -44.522 147.308  14.406  1.00 57.17     0.044 C 
HETATM   41  C39 VFQ J9621     -44.354 145.047   9.750  1.00 18.53     0.048 C 
HETATM   42  C40 VFQ J9621     -41.678 140.607   8.100  1.00 15.86     0.048 C 
HETATM   43  O23 VFQ J9621     -48.773 148.204  16.500  1.00 57.17    -0.395 OA
ATOM     44  H23 VFQ J9621     -48.240 148.667  17.135  1.00  0.00     0.210 HD
ENDROOT
TORSDOF 12
