REMARK VINA RESULT:    -8.945      2.334     16.676
REMARK INTER + INTRA:          -9.492
REMARK INTER:                  -9.388
REMARK INTRA:                  -0.104
REMARK UNBOUND:                -0.547
REMARK  0 active torsions:
REMARK  status: ('A' for Active; 'I' for Inactive)
REMARK       I    between atoms: C3_3  and  O3_21 
REMARK       I    between atoms: C6_6  and  C7_7 
REMARK       I    between atoms: C8_8  and  C9_9 
REMARK       I    between atoms: C10_10  and  C11_11 
REMARK       I    between atoms: C12_12  and  C13_13 
REMARK       I    between atoms: C14_14  and  C15_15 
REMARK       I    between atoms: C23_25  and  O23_43 
REMARK       I    between atoms: C26_28  and  C27_29 
REMARK       I    between atoms: C28_30  and  C29_31 
REMARK       I    between atoms: C30_32  and  C31_33 
REMARK       I    between atoms: C32_34  and  C33_35 
REMARK       I    between atoms: C34_36  and  C35_37 
ROOT
HETATM    1  C1  VFQ 6 321     -34.081 128.085   7.247  1.00 93.31    -0.018 C 
HETATM    2  C2  VFQ 6 321     -33.163 127.367   6.257  1.00 93.93     0.045 C 
HETATM    3  C3  VFQ 6 321     -32.370 128.264   5.316  1.00 93.98     0.123 C 
HETATM    4  C4  VFQ 6 321     -31.694 129.368   6.109  1.00 93.16     0.066 C 
HETATM    5  C5  VFQ 6 321     -32.735 130.161   6.852  1.00 92.19    -0.074 C 
HETATM    6  C6  VFQ 6 321     -33.789 129.565   7.420  1.00 91.50    -0.048 C 
HETATM    7  C7  VFQ 6 321     -34.708 130.364   8.265  1.00 98.60     0.009 C 
HETATM    8  C8  VFQ 6 321     -35.693 131.097   7.741  1.00 95.09     0.007 C 
HETATM    9  C9  VFQ 6 321     -36.596 131.886   8.605  1.00 91.76    -0.062 C 
HETATM   10  C10 VFQ 6 321     -37.446 132.757   8.042  1.00 98.95     0.007 C 
HETATM   11  C11 VFQ 6 321     -38.364 133.562   8.845  1.00 96.41     0.001 C 
HETATM   12  C12 VFQ 6 321     -39.177 134.415   8.228  1.00 94.60     0.007 C 
HETATM   13  C13 VFQ 6 321     -40.126 135.250   8.987  1.00 93.62    -0.062 C 
HETATM   14  C14 VFQ 6 321     -40.962 136.074   8.336  1.00 93.18     0.007 C 
HETATM   15  C15 VFQ 6 321     -41.907 136.900   9.083  1.00 93.10     0.001 C 
HETATM   16  C16 VFQ 6 321     -33.964 127.395   8.600  1.00 93.81     0.020 C 
HETATM   17  C17 VFQ 6 321     -35.516 127.959   6.747  1.00 92.50     0.020 C 
HETATM   18  C18 VFQ 6 321     -32.398 131.590   7.168  1.00 91.81     0.044 C 
HETATM   19  C19 VFQ 6 321     -36.564 131.715  10.095  1.00 91.57     0.048 C 
HETATM   20  C20 VFQ 6 321     -40.156 135.173  10.485  1.00 93.41     0.048 C 
HETATM   21  O3  VFQ 6 321     -31.370 127.486   4.647  1.00 94.06    -0.395 OA
ATOM     22  H3  VFQ 6 321     -30.875 128.046   4.060  1.00  0.00     0.210 HD
HETATM   23  C21 VFQ 6 321     -51.183 143.114  13.198  1.00 24.23    -0.018 C 
HETATM   24  C22 VFQ 6 321     -51.742 143.680  14.484  1.00 24.23     0.045 C 
HETATM   25  C23 VFQ 6 321     -51.719 145.184  14.551  1.00 24.23     0.123 C 
HETATM   26  C24 VFQ 6 321     -50.281 145.581  14.376  1.00 24.23     0.066 C 
HETATM   27  C25 VFQ 6 321     -49.802 145.153  13.027  1.00 24.23    -0.074 C 
HETATM   28  C26 VFQ 6 321     -50.397 144.140  12.409  1.00 24.23    -0.048 C 
HETATM   29  C27 VFQ 6 321     -49.997 143.780  11.055  1.00 24.23     0.009 C 
HETATM   30  C28 VFQ 6 321     -48.915 143.000  11.154  1.00 24.23     0.007 C 
HETATM   31  C29 VFQ 6 321     -48.214 142.428   9.991  1.00 92.38    -0.062 C 
HETATM   32  C30 VFQ 6 321     -47.157 141.637  10.235  1.00 92.82     0.007 C 
HETATM   33  C31 VFQ 6 321     -46.360 140.991   9.195  1.00 93.26     0.001 C 
HETATM   34  C32 VFQ 6 321     -45.399 140.173   9.616  1.00 94.43     0.007 C 
HETATM   35  C33 VFQ 6 321     -44.501 139.428   8.711  1.00 94.12    -0.062 C 
HETATM   36  C34 VFQ 6 321     -43.647 138.547   9.256  1.00 93.68     0.007 C 
HETATM   37  C35 VFQ 6 321     -42.719 137.752   8.458  1.00 93.36     0.001 C 
HETATM   38  C36 VFQ 6 321     -52.342 142.656  12.330  1.00 24.23     0.020 C 
HETATM   39  C37 VFQ 6 321     -50.372 141.902  13.611  1.00 24.23     0.020 C 
HETATM   40  C38 VFQ 6 321     -48.669 145.934  12.445  1.00 24.23     0.044 C 
HETATM   41  C39 VFQ 6 321     -48.662 142.720   8.589  1.00 91.58     0.048 C 
HETATM   42  C40 VFQ 6 321     -44.546 139.652   7.228  1.00 93.59     0.048 C 
HETATM   43  O23 VFQ 6 321     -52.134 145.597  15.846  1.00 24.23    -0.395 OA
ATOM     44  H23 VFQ 6 321     -52.119 146.545  15.889  1.00  0.00     0.210 HD
ENDROOT
TORSDOF 12
