REMARK VINA RESULT:    -9.156      0.000      0.000
REMARK INTER + INTRA:         -11.907
REMARK INTER:                  -9.156
REMARK INTRA:                  -2.751
REMARK UNBOUND:                -2.751
REMARK  0 active torsions:
REMARK  status: ('A' for Active; 'I' for Inactive)
REMARK       I    between atoms: C3_3  and  O3_21 
REMARK       I    between atoms: C6_6  and  C7_7 
REMARK       I    between atoms: C8_8  and  C9_9 
REMARK       I    between atoms: C10_10  and  C11_11 
REMARK       I    between atoms: C12_12  and  C13_13 
REMARK       I    between atoms: C14_14  and  C15_15 
REMARK       I    between atoms: C23_25  and  O23_43 
REMARK       I    between atoms: C26_28  and  C27_29 
REMARK       I    between atoms: C28_30  and  C29_31 
REMARK       I    between atoms: C30_32  and  C31_33 
REMARK       I    between atoms: C32_34  and  C33_35 
REMARK       I    between atoms: C34_36  and  C35_37 
ROOT
HETATM    1  C1  VFQ 61620     -34.485 128.113   6.547  1.00 97.95    -0.018 C 
HETATM    2  C2  VFQ 61620     -33.687 127.838   5.278  1.00 97.95     0.045 C 
HETATM    3  C3  VFQ 61620     -32.303 128.456   5.176  1.00 97.95     0.123 C 
HETATM    4  C4  VFQ 61620     -31.599 128.471   6.513  1.00 97.95     0.066 C 
HETATM    5  C5  VFQ 61620     -32.455 129.201   7.504  1.00 97.95    -0.074 C 
HETATM    6  C6  VFQ 61620     -33.779 129.012   7.544  1.00 97.95    -0.048 C 
HETATM    7  C7  VFQ 61620     -34.604 129.683   8.578  1.00 97.95     0.009 C 
HETATM    8  C8  VFQ 61620     -35.124 130.892   8.372  1.00 97.95     0.007 C 
HETATM    9  C9  VFQ 61620     -35.955 131.571   9.368  1.00 97.95    -0.062 C 
HETATM   10  C10 VFQ 61620     -36.487 132.735   9.004  1.00 97.95     0.007 C 
HETATM   11  C11 VFQ 61620     -37.346 133.527   9.864  1.00 97.95     0.001 C 
HETATM   12  C12 VFQ 61620     -37.764 134.655   9.315  1.00 97.95     0.007 C 
HETATM   13  C13 VFQ 61620     -38.664 135.600   9.985  1.00 97.95    -0.062 C 
HETATM   14  C14 VFQ 61620     -39.243 136.498   9.190  1.00 97.95     0.007 C 
HETATM   15  C15 VFQ 61620     -40.194 137.484   9.663  1.00 97.95     0.001 C 
HETATM   16  C16 VFQ 61620     -34.822 126.757   7.160  1.00 97.95     0.020 C 
HETATM   17  C17 VFQ 61620     -35.782 128.805   6.149  1.00 97.95     0.020 C 
HETATM   18  C18 VFQ 61620     -31.719 130.035   8.510  1.00 97.95     0.044 C 
HETATM   19  C19 VFQ 61620     -36.194 130.976  10.722  1.00 97.95     0.048 C 
HETATM   20  C20 VFQ 61620     -38.931 135.547  11.458  1.00 97.95     0.048 C 
HETATM   21  O3  VFQ 61620     -31.512 127.680   4.268  1.00 97.95    -0.395 OA
ATOM     22  H3  VFQ 61620     -30.647 128.067   4.204  1.00  0.00     0.210 HD
HETATM   23  C21 VFQ 61620     -49.946 144.991   9.461  1.00 21.49    -0.018 C 
HETATM   24  C22 VFQ 61620     -50.999 145.961   9.988  1.00 21.49     0.045 C 
HETATM   25  C23 VFQ 61620     -50.585 147.409  10.198  1.00 21.49     0.123 C 
HETATM   26  C24 VFQ 61620     -49.152 147.528  10.662  1.00 21.49     0.066 C 
HETATM   27  C25 VFQ 61620     -48.241 146.798   9.715  1.00 21.49    -0.074 C 
HETATM   28  C26 VFQ 61620     -48.597 145.629   9.166  1.00 21.49    -0.048 C 
HETATM   29  C27 VFQ 61620     -47.666 144.936   8.236  1.00 21.49     0.009 C 
HETATM   30  C28 VFQ 61620     -46.825 143.993   8.662  1.00 21.49     0.007 C 
HETATM   31  C29 VFQ 61620     -45.891 143.288   7.784  1.00 97.95    -0.062 C 
HETATM   32  C30 VFQ 61620     -45.142 142.364   8.377  1.00 97.95     0.007 C 
HETATM   33  C31 VFQ 61620     -44.160 141.532   7.711  1.00 97.95     0.001 C 
HETATM   34  C32 VFQ 61620     -43.550 140.710   8.547  1.00 97.95     0.007 C 
HETATM   35  C33 VFQ 61620     -42.527 139.759   8.123  1.00 97.95    -0.062 C 
HETATM   36  C34 VFQ 61620     -41.971 139.001   9.070  1.00 97.95     0.007 C 
HETATM   37  C35 VFQ 61620     -40.959 138.021   8.726  1.00 97.95     0.001 C 
HETATM   38  C36 VFQ 61620     -50.472 144.407   8.160  1.00 21.49     0.020 C 
HETATM   39  C37 VFQ 61620     -49.831 143.870  10.491  1.00 21.49     0.020 C 
HETATM   40  C38 VFQ 61620     -46.923 147.454   9.416  1.00 21.49     0.044 C 
HETATM   41  C39 VFQ 61620     -45.798 143.580   6.317  1.00 97.95     0.048 C 
HETATM   42  C40 VFQ 61620     -42.127 139.651   6.686  1.00 97.95     0.048 C 
HETATM   43  O23 VFQ 61620     -51.425 147.968  11.213  1.00 21.49    -0.395 OA
ATOM     44  H23 VFQ 61620     -51.167 148.873  11.343  1.00  0.00     0.210 HD
ENDROOT
TORSDOF 12
