REMARK VINA RESULT:   -10.796      0.000      0.000
REMARK INTER + INTRA:         -13.498
REMARK INTER:                 -10.796
REMARK INTRA:                  -2.702
REMARK UNBOUND:                -2.702
REMARK  0 active torsions:
REMARK  status: ('A' for Active; 'I' for Inactive)
REMARK       I    between atoms: C3_3  and  O3_21 
REMARK       I    between atoms: C6_6  and  C7_7 
REMARK       I    between atoms: C8_8  and  C9_9 
REMARK       I    between atoms: C10_10  and  C11_11 
REMARK       I    between atoms: C12_12  and  C13_13 
REMARK       I    between atoms: C14_14  and  C15_15 
REMARK       I    between atoms: C23_25  and  O23_43 
REMARK       I    between atoms: C26_28  and  C27_29 
REMARK       I    between atoms: C28_30  and  C29_31 
REMARK       I    between atoms: C30_32  and  C31_33 
REMARK       I    between atoms: C32_34  and  C33_35 
REMARK       I    between atoms: C34_36  and  C35_37 
ROOT
HETATM    1  C1  VFQ U1620     -33.627 129.148   7.052  1.00 22.99    -0.018 C 
HETATM    2  C2  VFQ U1620     -32.828 129.834   5.965  1.00 22.99     0.045 C 
HETATM    3  C3  VFQ U1620     -32.072 131.048   6.436  1.00 22.99     0.123 C 
HETATM    4  C4  VFQ U1620     -31.171 130.566   7.538  1.00 22.99     0.066 C 
HETATM    5  C5  VFQ U1620     -31.994 130.046   8.670  1.00 22.99    -0.074 C 
HETATM    6  C6  VFQ U1620     -33.223 129.601   8.438  1.00 22.99    -0.048 C 
HETATM    7  C7  VFQ U1620     -34.293 129.897   9.383  1.00 22.99     0.009 C 
HETATM    8  C8  VFQ U1620     -34.751 131.120   9.096  1.00 22.99     0.007 C 
HETATM    9  C9  VFQ U1620     -35.845 131.778   9.833  1.00 22.99    -0.062 C 
HETATM   10  C10 VFQ U1620     -36.239 132.989   9.406  1.00 22.99     0.007 C 
HETATM   11  C11 VFQ U1620     -37.331 133.734  10.018  1.00 22.99     0.001 C 
HETATM   12  C12 VFQ U1620     -37.709 134.902   9.513  1.00 22.99     0.007 C 
HETATM   13  C13 VFQ U1620     -38.855 135.609  10.097  1.00 22.99    -0.062 C 
HETATM   14  C14 VFQ U1620     -39.293 136.691   9.447  1.00 22.99     0.007 C 
HETATM   15  C15 VFQ U1620     -40.459 137.481   9.818  1.00 22.99     0.001 C 
HETATM   16  C16 VFQ U1620     -33.441 127.664   6.810  1.00 22.99     0.020 C 
HETATM   17  C17 VFQ U1620     -35.094 129.496   6.862  1.00 22.99     0.020 C 
HETATM   18  C18 VFQ U1620     -31.627 130.913   9.831  1.00 22.99     0.044 C 
HETATM   19  C19 VFQ U1620     -36.478 131.085  11.003  1.00 22.99     0.048 C 
HETATM   20  C20 VFQ U1620     -39.509 135.038  11.312  1.00 22.99     0.048 C 
HETATM   21  O3  VFQ U1620     -31.256 131.525   5.375  1.00 22.99    -0.395 OA
ATOM     22  H3  VFQ U1620     -30.778 132.291   5.673  1.00  0.00     0.210 HD
HETATM   23  C21 VFQ U1620     -50.216 144.810   8.902  1.00 33.87    -0.018 C 
HETATM   24  C22 VFQ U1620     -51.508 145.443   9.403  1.00 33.87     0.045 C 
HETATM   25  C23 VFQ U1620     -51.353 146.225  10.697  1.00 33.87     0.123 C 
HETATM   26  C24 VFQ U1620     -50.306 145.570  11.580  1.00 33.87     0.066 C 
HETATM   27  C25 VFQ U1620     -48.986 145.618  10.865  1.00 33.87    -0.074 C 
HETATM   28  C26 VFQ U1620     -48.989 145.401   9.544  1.00 33.87    -0.048 C 
HETATM   29  C27 VFQ U1620     -47.762 145.386   8.754  1.00 33.87     0.009 C 
HETATM   30  C28 VFQ U1620     -47.019 144.359   9.177  1.00 33.87     0.007 C 
HETATM   31  C29 VFQ U1620     -45.785 143.931   8.480  1.00 22.99    -0.062 C 
HETATM   32  C30 VFQ U1620     -45.206 142.817   8.961  1.00 22.99     0.007 C 
HETATM   33  C31 VFQ U1620     -44.004 142.178   8.427  1.00 22.99     0.001 C 
HETATM   34  C32 VFQ U1620     -43.553 141.076   9.026  1.00 22.99     0.007 C 
HETATM   35  C33 VFQ U1620     -42.350 140.356   8.570  1.00 22.99    -0.062 C 
HETATM   36  C34 VFQ U1620     -41.968 139.293   9.296  1.00 22.99     0.007 C 
HETATM   37  C35 VFQ U1620     -40.798 138.473   9.003  1.00 22.99     0.001 C 
HETATM   38  C36 VFQ U1620     -50.103 144.989   7.393  1.00 33.87     0.020 C 
HETATM   39  C37 VFQ U1620     -50.204 143.326   9.245  1.00 33.87     0.020 C 
HETATM   40  C38 VFQ U1620     -47.775 145.999  11.674  1.00 33.87     0.044 C 
HETATM   41  C39 VFQ U1620     -45.289 144.690   7.283  1.00 22.99     0.048 C 
HETATM   42  C40 VFQ U1620     -41.643 140.818   7.332  1.00 22.99     0.048 C 
HETATM   43  O23 VFQ U1620     -52.600 146.233  11.394  1.00 33.87    -0.395 OA
ATOM     44  H23 VFQ U1620     -52.503 146.721  12.203  1.00  0.00     0.210 HD
ENDROOT
TORSDOF 12
