REMARK VINA RESULT:    -7.013      0.880     17.188
REMARK INTER + INTRA:         -10.075
REMARK INTER:                  -7.631
REMARK INTRA:                  -2.444
REMARK UNBOUND:                -3.062
REMARK  0 active torsions:
REMARK  status: ('A' for Active; 'I' for Inactive)
REMARK       I    between atoms: C3_3  and  O3_21 
REMARK       I    between atoms: C6_6  and  C7_7 
REMARK       I    between atoms: C8_8  and  C9_9 
REMARK       I    between atoms: C10_10  and  C11_11 
REMARK       I    between atoms: C12_12  and  C13_13 
REMARK       I    between atoms: C14_14  and  C15_15 
REMARK       I    between atoms: C23_25  and  O23_43 
REMARK       I    between atoms: C26_28  and  C27_29 
REMARK       I    between atoms: C28_30  and  C29_31 
REMARK       I    between atoms: C30_32  and  C31_33 
REMARK       I    between atoms: C32_34  and  C33_35 
REMARK       I    between atoms: C34_36  and  C35_37 
ROOT
HETATM    1  C1  VFQ J9621     -34.634 127.433   6.125  1.00 21.11    -0.018 C 
HETATM    2  C2  VFQ J9621     -34.244 126.842   4.760  1.00 20.11     0.045 C 
HETATM    3  C3  VFQ J9621     -32.844 127.085   4.196  1.00 19.41     0.123 C 
HETATM    4  C4  VFQ J9621     -31.940 128.017   5.015  1.00 18.39     0.066 C 
HETATM    5  C5  VFQ J9621     -32.450 128.776   6.195  1.00 18.34    -0.074 C 
HETATM    6  C6  VFQ J9621     -33.685 128.526   6.748  1.00 19.81    -0.048 C 
HETATM    7  C7  VFQ J9621     -34.236 129.200   7.945  1.00 19.02     0.009 C 
HETATM    8  C8  VFQ J9621     -34.823 130.413   7.946  1.00 17.97     0.007 C 
HETATM    9  C9  VFQ J9621     -35.390 131.138   9.087  1.00 18.85    -0.062 C 
HETATM   10  C10 VFQ J9621     -36.046 132.292   8.828  1.00 18.38     0.007 C 
HETATM   11  C11 VFQ J9621     -36.755 133.128   9.769  1.00 18.57     0.001 C 
HETATM   12  C12 VFQ J9621     -37.446 134.221   9.377  1.00 17.11     0.007 C 
HETATM   13  C13 VFQ J9621     -38.274 135.106  10.209  1.00 20.42    -0.062 C 
HETATM   14  C14 VFQ J9621     -38.915 136.131   9.602  1.00 20.50     0.007 C 
HETATM   15  C15 VFQ J9621     -39.808 137.080  10.223  1.00 20.22     0.001 C 
HETATM   16  C16 VFQ J9621     -34.725 126.193   7.049  1.00 19.56     0.020 C 
HETATM   17  C17 VFQ J9621     -36.060 127.994   5.940  1.00 18.49     0.020 C 
HETATM   18  C18 VFQ J9621     -31.391 129.708   6.656  1.00 16.89     0.044 C 
HETATM   19  C19 VFQ J9621     -35.266 130.508  10.446  1.00 14.61     0.048 C 
HETATM   20  C20 VFQ J9621     -38.388 134.796  11.684  1.00 17.59     0.048 C 
HETATM   21  O3  VFQ J9621     -32.190 125.850   3.962  1.00 18.27    -0.395 OA
ATOM     22  H3  VFQ J9621     -31.320 126.001   3.611  1.00  0.00     0.210 HD
HETATM   23  C21 VFQ J9621     -47.922 146.672  13.683  1.00 19.07    -0.018 C 
HETATM   24  C22 VFQ J9621     -48.528 147.313  14.945  1.00 18.69     0.045 C 
HETATM   25  C23 VFQ J9621     -47.624 148.229  15.766  1.00 19.88     0.123 C 
HETATM   26  C24 VFQ J9621     -46.157 147.773  15.815  1.00 19.59     0.066 C 
HETATM   27  C25 VFQ J9621     -45.592 147.107  14.599  1.00 18.61    -0.074 C 
HETATM   28  C26 VFQ J9621     -46.373 146.586  13.590  1.00 18.29    -0.048 C 
HETATM   29  C27 VFQ J9621     -45.773 145.937  12.405  1.00 19.20     0.009 C 
HETATM   30  C28 VFQ J9621     -45.244 144.691  12.310  1.00 18.47     0.007 C 
HETATM   31  C29 VFQ J9621     -44.500 144.114  11.182  1.00 19.55    -0.062 C 
HETATM   32  C30 VFQ J9621     -44.010 142.860  11.297  1.00 17.66     0.007 C 
HETATM   33  C31 VFQ J9621     -43.252 142.141  10.302  1.00 19.12     0.001 C 
HETATM   34  C32 VFQ J9621     -42.656 140.954  10.560  1.00 19.40     0.007 C 
HETATM   35  C33 VFQ J9621     -41.825 140.112   9.680  1.00 19.31    -0.062 C 
HETATM   36  C34 VFQ J9621     -41.259 139.010  10.216  1.00 17.72     0.007 C 
HETATM   37  C35 VFQ J9621     -40.377 138.086   9.558  1.00 19.92     0.001 C 
HETATM   38  C36 VFQ J9621     -48.484 147.415  12.454  1.00 17.04     0.020 C 
HETATM   39  C37 VFQ J9621     -48.531 145.259  13.723  1.00 20.18     0.020 C 
HETATM   40  C38 VFQ J9621     -44.112 147.150  14.722  1.00 19.93     0.044 C 
HETATM   41  C39 VFQ J9621     -44.269 144.997   9.984  1.00 18.53     0.048 C 
HETATM   42  C40 VFQ J9621     -41.608 140.574   8.264  1.00 15.86     0.048 C 
HETATM   43  O23 VFQ J9621     -48.140 148.388  17.080  1.00 19.51    -0.395 OA
ATOM     44  H23 VFQ J9621     -47.577 148.958  17.591  1.00  0.00     0.210 HD
ENDROOT
TORSDOF 12
