REMARK VINA RESULT:    -8.629      0.467     16.872
REMARK INTER + INTRA:         -11.260
REMARK INTER:                  -9.133
REMARK INTRA:                  -2.127
REMARK UNBOUND:                -2.631
REMARK  0 active torsions:
REMARK  status: ('A' for Active; 'I' for Inactive)
REMARK       I    between atoms: C3_3  and  O3_21 
REMARK       I    between atoms: C6_6  and  C7_7 
REMARK       I    between atoms: C8_8  and  C9_9 
REMARK       I    between atoms: C10_10  and  C11_11 
REMARK       I    between atoms: C12_12  and  C13_13 
REMARK       I    between atoms: C14_14  and  C15_15 
REMARK       I    between atoms: C23_25  and  O23_43 
REMARK       I    between atoms: C26_28  and  C27_29 
REMARK       I    between atoms: C28_30  and  C29_31 
REMARK       I    between atoms: C30_32  and  C31_33 
REMARK       I    between atoms: C32_34  and  C33_35 
REMARK       I    between atoms: C34_36  and  C35_37 
ROOT
HETATM    1  C1  VFQ F5620     -49.169 144.684  12.668  1.00 19.30    -0.018 C 
HETATM    2  C2  VFQ F5620     -49.612 145.338  13.990  1.00 17.68     0.045 C 
HETATM    3  C3  VFQ F5620     -48.801 146.507  14.538  1.00 17.79     0.123 C 
HETATM    4  C4  VFQ F5620     -47.931 147.240  13.516  1.00 18.50     0.066 C 
HETATM    5  C5  VFQ F5620     -47.356 146.469  12.373  1.00 19.40    -0.074 C 
HETATM    6  C6  VFQ F5620     -47.910 145.275  11.957  1.00 19.02    -0.048 C 
HETATM    7  C7  VFQ F5620     -47.335 144.506  10.843  1.00 18.60     0.009 C 
HETATM    8  C8  VFQ F5620     -46.235 143.725  10.883  1.00 18.09     0.007 C 
HETATM    9  C9  VFQ F5620     -45.587 143.051   9.753  1.00 18.23    -0.062 C 
HETATM   10  C10 VFQ F5620     -44.551 142.227  10.024  1.00 15.81     0.007 C 
HETATM   11  C11 VFQ F5620     -43.793 141.460   9.075  1.00 18.00     0.001 C 
HETATM   12  C12 VFQ F5620     -42.910 140.548   9.514  1.00 18.12     0.007 C 
HETATM   13  C13 VFQ F5620     -42.076 139.628   8.751  1.00 18.88    -0.062 C 
HETATM   14  C14 VFQ F5620     -41.350 138.730   9.451  1.00 21.10     0.007 C 
HETATM   15  C15 VFQ F5620     -40.524 137.669   8.937  1.00 24.06     0.001 C 
HETATM   16  C16 VFQ F5620     -50.401 144.848  11.761  1.00 17.17     0.020 C 
HETATM   17  C17 VFQ F5620     -48.982 143.176  12.949  1.00 16.95     0.020 C 
HETATM   18  C18 VFQ F5620     -46.166 147.204  11.844  1.00 19.80     0.044 C 
HETATM   19  C19 VFQ F5620     -46.156 143.285   8.372  1.00 17.09     0.048 C 
HETATM   20  C20 VFQ F5620     -42.136 139.692   7.257  1.00 16.35     0.048 C 
HETATM   21  O3  VFQ F5620     -49.653 147.427  15.196  1.00 17.38    -0.395 OA
ATOM     22  H3  VFQ F5620     -49.148 148.156  15.538  1.00  0.00     0.210 HD
HETATM   23  C21 VFQ F5620     -34.365 126.956   6.606  1.00 72.69    -0.018 C 
HETATM   24  C22 VFQ F5620     -33.659 125.992   5.653  1.00 72.50     0.045 C 
HETATM   25  C23 VFQ F5620     -32.391 126.478   4.955  1.00 72.53     0.123 C 
HETATM   26  C24 VFQ F5620     -32.382 127.983   4.757  1.00 73.67     0.066 C 
HETATM   27  C25 VFQ F5620     -32.639 128.667   6.071  1.00 74.71    -0.074 C 
HETATM   28  C26 VFQ F5620     -33.619 128.246   6.869  1.00 74.26    -0.048 C 
HETATM   29  C27 VFQ F5620     -34.030 129.054   8.039  1.00 75.37     0.009 C 
HETATM   30  C28 VFQ F5620     -34.878 130.068   7.873  1.00 77.10     0.007 C 
HETATM   31  C29 VFQ F5620     -35.364 130.929   8.993  1.00 26.61    -0.062 C 
HETATM   32  C30 VFQ F5620     -36.225 131.918   8.672  1.00 25.24     0.007 C 
HETATM   33  C31 VFQ F5620     -36.859 132.831   9.577  1.00 26.40     0.001 C 
HETATM   34  C32 VFQ F5620     -37.668 133.811   9.133  1.00 26.29     0.007 C 
HETATM   35  C33 VFQ F5620     -38.380 134.832   9.910  1.00 26.99    -0.062 C 
HETATM   36  C34 VFQ F5620     -39.108 135.741   9.228  1.00 26.65     0.007 C 
HETATM   37  C35 VFQ F5620     -39.880 136.830   9.757  1.00 25.43     0.001 C 
HETATM   38  C36 VFQ F5620     -34.555 126.262   7.949  1.00 72.40     0.020 C 
HETATM   39  C37 VFQ F5620     -35.731 127.290   6.020  1.00 73.92     0.020 C 
HETATM   40  C38 VFQ F5620     -31.773 129.829   6.461  1.00 74.98     0.044 C 
HETATM   41  C39 VFQ F5620     -34.876 130.659  10.395  1.00 26.87     0.048 C 
HETATM   42  C40 VFQ F5620     -38.229 134.808  11.403  1.00 24.17     0.048 C 
HETATM   43  O23 VFQ F5620     -32.316 125.850   3.670  1.00 71.08    -0.395 OA
ATOM     44  H23 VFQ F5620     -32.322 124.908   3.794  1.00  0.00     0.210 HD
ENDROOT
TORSDOF 12
