REMARK VINA RESULT:    -9.727      0.000      0.000
REMARK INTER + INTRA:         -12.951
REMARK INTER:                  -9.727
REMARK INTRA:                  -3.224
REMARK UNBOUND:                -3.224
REMARK  0 active torsions:
REMARK  status: ('A' for Active; 'I' for Inactive)
REMARK       I    between atoms: C3_3  and  O3_21 
REMARK       I    between atoms: C6_6  and  C7_7 
REMARK       I    between atoms: C8_8  and  C9_9 
REMARK       I    between atoms: C10_10  and  C11_11 
REMARK       I    between atoms: C12_12  and  C13_13 
REMARK       I    between atoms: C14_14  and  C15_15 
REMARK       I    between atoms: C23_25  and  O23_43 
REMARK       I    between atoms: C26_28  and  C27_29 
REMARK       I    between atoms: C28_30  and  C29_31 
REMARK       I    between atoms: C30_32  and  C31_33 
REMARK       I    between atoms: C32_34  and  C33_35 
REMARK       I    between atoms: C34_36  and  C35_37 
ROOT
HETATM    1  C1  VFQ N1621     -34.343 127.012   6.302  1.00 51.88    -0.018 C 
HETATM    2  C2  VFQ N1621     -33.941 126.442   4.949  1.00 51.88     0.045 C 
HETATM    3  C3  VFQ N1621     -32.773 127.102   4.251  1.00 51.88     0.123 C 
HETATM    4  C4  VFQ N1621     -31.697 127.434   5.257  1.00 51.88     0.066 C 
HETATM    5  C5  VFQ N1621     -32.261 128.361   6.291  1.00 51.88    -0.074 C 
HETATM    6  C6  VFQ N1621     -33.460 128.129   6.829  1.00 51.88    -0.048 C 
HETATM    7  C7  VFQ N1621     -33.993 128.933   7.960  1.00 51.88     0.009 C 
HETATM    8  C8  VFQ N1621     -34.606 130.104   7.776  1.00 51.88     0.007 C 
HETATM    9  C9  VFQ N1621     -35.190 130.909   8.857  1.00 51.88    -0.062 C 
HETATM   10  C10 VFQ N1621     -36.091 131.808   8.462  1.00 51.88     0.007 C 
HETATM   11  C11 VFQ N1621     -36.855 132.706   9.312  1.00 51.88     0.001 C 
HETATM   12  C12 VFQ N1621     -37.708 133.482   8.657  1.00 51.88     0.007 C 
HETATM   13  C13 VFQ N1621     -38.612 134.419   9.336  1.00 51.88    -0.062 C 
HETATM   14  C14 VFQ N1621     -39.421 135.181   8.590  1.00 51.88     0.007 C 
HETATM   15  C15 VFQ N1621     -40.370 136.104   9.200  1.00 51.88     0.001 C 
HETATM   16  C16 VFQ N1621     -34.418 125.855   7.285  1.00 51.88     0.020 C 
HETATM   17  C17 VFQ N1621     -35.737 127.575   6.153  1.00 51.88     0.020 C 
HETATM   18  C18 VFQ N1621     -31.290 129.346   6.865  1.00 51.88     0.044 C 
HETATM   19  C19 VFQ N1621     -34.809 130.725  10.292  1.00 51.88     0.048 C 
HETATM   20  C20 VFQ N1621     -38.645 134.472  10.832  1.00 51.88     0.048 C 
HETATM   21  O3  VFQ N1621     -32.224 126.182   3.303  1.00 51.88    -0.395 OA
ATOM     22  H3  VFQ N1621     -31.490 126.597   2.864  1.00  0.00     0.210 HD
HETATM   23  C21 VFQ N1621     -49.931 144.723  10.267  1.00 23.41    -0.018 C 
HETATM   24  C22 VFQ N1621     -50.908 145.374  11.263  1.00 23.79     0.045 C 
HETATM   25  C23 VFQ N1621     -50.405 146.372  12.301  1.00 23.28     0.123 C 
HETATM   26  C24 VFQ N1621     -48.894 146.288  12.573  1.00 23.70     0.066 C 
HETATM   27  C25 VFQ N1621     -47.970 145.630  11.589  1.00 23.84    -0.074 C 
HETATM   28  C26 VFQ N1621     -48.402 144.890  10.506  1.00 22.99    -0.048 C 
HETATM   29  C27 VFQ N1621     -47.509 144.222   9.522  1.00 20.55     0.009 C 
HETATM   30  C28 VFQ N1621     -46.907 143.029   9.715  1.00 19.35     0.007 C 
HETATM   31  C29 VFQ N1621     -45.991 142.341   8.848  1.00 51.88    -0.062 C 
HETATM   32  C30 VFQ N1621     -45.582 141.113   9.186  1.00 51.88     0.007 C 
HETATM   33  C31 VFQ N1621     -44.660 140.299   8.403  1.00 51.88     0.001 C 
HETATM   34  C32 VFQ N1621     -43.836 139.497   9.075  1.00 51.88     0.007 C 
HETATM   35  C33 VFQ N1621     -42.869 138.629   8.389  1.00 51.88    -0.062 C 
HETATM   36  C34 VFQ N1621     -42.054 137.825   9.091  1.00 51.88     0.007 C 
HETATM   37  C35 VFQ N1621     -41.091 136.934   8.450  1.00 51.88     0.001 C 
HETATM   38  C36 VFQ N1621     -50.299 145.228   8.865  1.00 23.73     0.020 C 
HETATM   39  C37 VFQ N1621     -50.334 143.248  10.360  1.00 23.42     0.020 C 
HETATM   40  C38 VFQ N1621     -46.564 145.922  11.969  1.00 22.78     0.044 C 
HETATM   41  C39 VFQ N1621     -45.525 143.020   7.597  1.00 51.88     0.048 C 
HETATM   42  C40 VFQ N1621     -42.819 138.661   6.903  1.00 51.88     0.048 C 
HETATM   43  O23 VFQ N1621     -51.139 146.233  13.510  1.00 21.52    -0.395 OA
ATOM     44  H23 VFQ N1621     -50.826 146.855  14.157  1.00  0.00     0.210 HD
ENDROOT
TORSDOF 12
