REMARK VINA RESULT:    -9.215      0.000      0.000
REMARK INTER + INTRA:         -12.175
REMARK INTER:                  -9.215
REMARK INTRA:                  -2.960
REMARK UNBOUND:                -2.960
REMARK  0 active torsions:
REMARK  status: ('A' for Active; 'I' for Inactive)
REMARK       I    between atoms: C3_3  and  O3_21 
REMARK       I    between atoms: C6_6  and  C7_7 
REMARK       I    between atoms: C8_8  and  C9_9 
REMARK       I    between atoms: C10_10  and  C11_11 
REMARK       I    between atoms: C12_12  and  C13_13 
REMARK       I    between atoms: C14_14  and  C15_15 
REMARK       I    between atoms: C23_25  and  O23_43 
REMARK       I    between atoms: C26_28  and  C27_29 
REMARK       I    between atoms: C28_30  and  C29_31 
REMARK       I    between atoms: C30_32  and  C31_33 
REMARK       I    between atoms: C32_34  and  C33_35 
REMARK       I    between atoms: C34_36  and  C35_37 
ROOT
HETATM    1  C1  VFQ 11620     -34.430 127.777   6.502  1.00 94.67    -0.018 C 
HETATM    2  C2  VFQ 11620     -33.755 127.400   5.191  1.00 94.67     0.045 C 
HETATM    3  C3  VFQ 11620     -32.447 128.096   4.879  1.00 94.67     0.123 C 
HETATM    4  C4  VFQ 11620     -31.596 128.119   6.119  1.00 94.67     0.066 C 
HETATM    5  C5  VFQ 11620     -32.307 128.862   7.206  1.00 94.67    -0.074 C 
HETATM    6  C6  VFQ 11620     -33.618 128.697   7.394  1.00 94.67    -0.048 C 
HETATM    7  C7  VFQ 11620     -34.322 129.400   8.494  1.00 94.67     0.009 C 
HETATM    8  C8  VFQ 11620     -34.833 130.616   8.318  1.00 94.67     0.007 C 
HETATM    9  C9  VFQ 11620     -35.552 131.339   9.366  1.00 94.67    -0.062 C 
HETATM   10  C10 VFQ 11620     -36.060 132.515   9.010  1.00 94.67     0.007 C 
HETATM   11  C11 VFQ 11620     -36.829 133.375   9.890  1.00 94.67     0.001 C 
HETATM   12  C12 VFQ 11620     -37.517 134.290   9.227  1.00 94.67     0.007 C 
HETATM   13  C13 VFQ 11620     -38.399 135.269   9.857  1.00 94.67    -0.062 C 
HETATM   14  C14 VFQ 11620     -39.093 136.052   9.033  1.00 94.67     0.007 C 
HETATM   15  C15 VFQ 11620     -40.043 137.056   9.483  1.00 94.67     0.001 C 
HETATM   16  C16 VFQ 11620     -34.743 126.461   7.206  1.00 94.67     0.020 C 
HETATM   17  C17 VFQ 11620     -35.721 128.507   6.163  1.00 94.67     0.020 C 
HETATM   18  C18 VFQ 11620     -31.458 129.734   8.082  1.00 94.67     0.044 C 
HETATM   19  C19 VFQ 11620     -35.707 130.779  10.746  1.00 94.67     0.048 C 
HETATM   20  C20 VFQ 11620     -38.523 135.361  11.344  1.00 94.67     0.048 C 
HETATM   21  O3  VFQ 11620     -31.757 127.345   3.879  1.00 94.67    -0.395 OA
ATOM     22  H3  VFQ 11620     -32.294 127.331   3.096  1.00  0.00     0.210 HD
HETATM   23  C21 VFQ 11620     -49.763 144.670   9.378  1.00 48.43    -0.018 C 
HETATM   24  C22 VFQ 11620     -50.736 145.543  10.158  1.00 44.61     0.045 C 
HETATM   25  C23 VFQ 11620     -50.249 146.933  10.518  1.00 44.41     0.123 C 
HETATM   26  C24 VFQ 11620     -48.807 146.898  10.963  1.00 41.53     0.066 C 
HETATM   27  C25 VFQ 11620     -47.990 146.361   9.832  1.00 37.72    -0.074 C 
HETATM   28  C26 VFQ 11620     -48.373 145.253   9.198  1.00 43.52    -0.048 C 
HETATM   29  C27 VFQ 11620     -47.472 144.546   8.258  1.00 44.60     0.009 C 
HETATM   30  C28 VFQ 11620     -46.535 143.704   8.674  1.00 43.22     0.007 C 
HETATM   31  C29 VFQ 11620     -45.681 142.978   7.724  1.00 94.67    -0.062 C 
HETATM   32  C30 VFQ 11620     -44.955 141.996   8.255  1.00 94.67     0.007 C 
HETATM   33  C31 VFQ 11620     -44.035 141.136   7.532  1.00 94.67     0.001 C 
HETATM   34  C32 VFQ 11620     -43.314 140.396   8.356  1.00 94.67     0.007 C 
HETATM   35  C33 VFQ 11620     -42.299 139.433   7.939  1.00 94.67    -0.062 C 
HETATM   36  C34 VFQ 11620     -41.780 138.636   8.878  1.00 94.67     0.007 C 
HETATM   37  C35 VFQ 11620     -40.778 137.637   8.544  1.00 94.67     0.001 C 
HETATM   38  C36 VFQ 11620     -50.284 144.477   7.965  1.00 47.48     0.020 C 
HETATM   39  C37 VFQ 11620     -49.742 143.326  10.098  1.00 54.25     0.020 C 
HETATM   40  C38 VFQ 11620     -46.762 147.119   9.453  1.00 37.77     0.044 C 
HETATM   41  C39 VFQ 11620     -45.637 143.314   6.267  1.00 94.67     0.048 C 
HETATM   42  C40 VFQ 11620     -41.853 139.368   6.514  1.00 94.67     0.048 C 
HETATM   43  O23 VFQ 11620     -51.047 147.440  11.588  1.00 48.83    -0.395 OA
ATOM     44  H23 VFQ 11620     -51.954 147.462  11.308  1.00  0.00     0.210 HD
ENDROOT
TORSDOF 12
