REMARK VINA RESULT:    -9.101      1.717     16.683
REMARK INTER + INTRA:          -9.444
REMARK INTER:                  -5.991
REMARK INTRA:                  -3.453
REMARK UNBOUND:                -0.343
REMARK  0 active torsions:
REMARK  status: ('A' for Active; 'I' for Inactive)
REMARK       I    between atoms: C3_3  and  O3_21 
REMARK       I    between atoms: C6_6  and  C7_7 
REMARK       I    between atoms: C8_8  and  C9_9 
REMARK       I    between atoms: C10_10  and  C11_11 
REMARK       I    between atoms: C12_12  and  C13_13 
REMARK       I    between atoms: C14_14  and  C15_15 
REMARK       I    between atoms: C23_25  and  O23_43 
REMARK       I    between atoms: C26_28  and  C27_29 
REMARK       I    between atoms: C28_30  and  C29_31 
REMARK       I    between atoms: C30_32  and  C31_33 
REMARK       I    between atoms: C32_34  and  C33_35 
REMARK       I    between atoms: C34_36  and  C35_37 
ROOT
HETATM    1  C1  VFQ g1620     -49.239 145.342  12.560  1.00 66.61    -0.018 C 
HETATM    2  C2  VFQ g1620     -49.915 145.594  13.903  1.00 66.61     0.045 C 
HETATM    3  C3  VFQ g1620     -49.181 146.444  14.928  1.00 66.61     0.123 C 
HETATM    4  C4  VFQ g1620     -48.331 147.506  14.265  1.00 66.61     0.066 C 
HETATM    5  C5  VFQ g1620     -47.398 146.851  13.288  1.00 66.61    -0.074 C 
HETATM    6  C6  VFQ g1620     -47.836 145.909  12.446  1.00 66.61    -0.048 C 
HETATM    7  C7  VFQ g1620     -46.959 145.403  11.360  1.00 66.61     0.009 C 
HETATM    8  C8  VFQ g1620     -46.107 144.395  11.561  1.00 66.61     0.007 C 
HETATM    9  C9  VFQ g1620     -45.238 143.868  10.501  1.00 66.61    -0.062 C 
HETATM   10  C10 VFQ g1620     -44.366 142.915  10.840  1.00 66.61     0.007 C 
HETATM   11  C11 VFQ g1620     -43.458 142.295   9.890  1.00 66.61     0.001 C 
HETATM   12  C12 VFQ g1620     -42.815 141.225  10.338  1.00 66.61     0.007 C 
HETATM   13  C13 VFQ g1620     -41.870 140.452   9.523  1.00 66.61    -0.062 C 
HETATM   14  C14 VFQ g1620     -41.386 139.322  10.047  1.00 66.61     0.007 C 
HETATM   15  C15 VFQ g1620     -40.463 138.463   9.322  1.00 66.61     0.001 C 
HETATM   16  C16 VFQ g1620     -50.147 145.914  11.477  1.00 66.61     0.020 C 
HETATM   17  C17 VFQ g1620     -49.152 143.837  12.368  1.00 66.61     0.020 C 
HETATM   18  C18 VFQ g1620     -46.092 147.565  13.095  1.00 66.61     0.044 C 
HETATM   19  C19 VFQ g1620     -45.343 144.379   9.095  1.00 66.61     0.048 C 
HETATM   20  C20 VFQ g1620     -41.473 140.911   8.152  1.00 66.61     0.048 C 
HETATM   21  O3  VFQ g1620     -50.152 147.091  15.757  1.00 66.61    -0.395 OA
ATOM     22  H3  VFQ g1620     -50.685 146.424  16.174  1.00  0.00     0.210 HD
HETATM   23  C21 VFQ g1620     -34.610 128.133   6.078  1.00 48.79    -0.018 C 
HETATM   24  C22 VFQ g1620     -33.846 126.963   5.475  1.00 49.38     0.045 C 
HETATM   25  C23 VFQ g1620     -32.365 127.180   5.170  1.00 51.85     0.123 C 
HETATM   26  C24 VFQ g1620     -31.620 127.899   6.281  1.00 54.16     0.066 C 
HETATM   27  C25 VFQ g1620     -32.446 128.837   7.117  1.00 52.93    -0.074 C 
HETATM   28  C26 VFQ g1620     -33.790 128.853   7.136  1.00 53.44    -0.048 C 
HETATM   29  C27 VFQ g1620     -34.510 129.567   8.226  1.00 56.18     0.009 C 
HETATM   30  C28 VFQ g1620     -35.003 130.796   8.065  1.00 54.04     0.007 C 
HETATM   31  C29 VFQ g1620     -35.732 131.507   9.114  1.00 66.61    -0.062 C 
HETATM   32  C30 VFQ g1620     -36.492 132.536   8.729  1.00 66.61     0.007 C 
HETATM   33  C31 VFQ g1620     -37.303 133.344   9.629  1.00 66.61     0.001 C 
HETATM   34  C32 VFQ g1620     -37.896 134.394   9.079  1.00 66.61     0.007 C 
HETATM   35  C33 VFQ g1620     -38.768 135.303   9.831  1.00 66.61    -0.062 C 
HETATM   36  C34 VFQ g1620     -39.270 136.364   9.190  1.00 66.61     0.007 C 
HETATM   37  C35 VFQ g1620     -40.163 137.291   9.868  1.00 66.61     0.001 C 
HETATM   38  C36 VFQ g1620     -35.890 127.586   6.704  1.00 50.92     0.020 C 
HETATM   39  C37 VFQ g1620     -35.020 129.097   4.976  1.00 48.05     0.020 C 
HETATM   40  C38 VFQ g1620     -31.629 129.749   7.972  1.00 55.82     0.044 C 
HETATM   41  C39 VFQ g1620     -35.629 131.089  10.551  1.00 66.61     0.048 C 
HETATM   42  C40 VFQ g1620     -39.090 135.025  11.269  1.00 66.61     0.048 C 
HETATM   43  O23 VFQ g1620     -32.169 127.858   3.923  1.00 50.70    -0.395 OA
ATOM     44  H23 VFQ g1620     -31.248 127.993   3.733  1.00  0.00     0.210 HD
ENDROOT
TORSDOF 12
