REMARK VINA RESULT:    -8.480      0.795     16.662
REMARK INTER + INTRA:          -8.831
REMARK INTER:                  -8.523
REMARK INTRA:                  -0.308
REMARK UNBOUND:                -0.351
REMARK  0 active torsions:
REMARK  status: ('A' for Active; 'I' for Inactive)
REMARK       I    between atoms: C3_3  and  O3_21 
REMARK       I    between atoms: C6_6  and  C7_7 
REMARK       I    between atoms: C8_8  and  C9_9 
REMARK       I    between atoms: C10_10  and  C11_11 
REMARK       I    between atoms: C12_12  and  C13_13 
REMARK       I    between atoms: C14_14  and  C15_15 
REMARK       I    between atoms: C23_25  and  O23_43 
REMARK       I    between atoms: C26_28  and  C27_29 
REMARK       I    between atoms: C28_30  and  C29_31 
REMARK       I    between atoms: C30_32  and  C31_33 
REMARK       I    between atoms: C32_34  and  C33_35 
REMARK       I    between atoms: C34_36  and  C35_37 
ROOT
HETATM    1  C1  VFQ S1620     -50.468 144.793  10.105  1.00 51.40    -0.018 C 
HETATM    2  C2  VFQ S1620     -51.370 145.045  11.305  1.00 51.40     0.045 C 
HETATM    3  C3  VFQ S1620     -51.034 146.177  12.267  1.00 51.40     0.123 C 
HETATM    4  C4  VFQ S1620     -50.037 147.162  11.699  1.00 51.40     0.066 C 
HETATM    5  C5  VFQ S1620     -48.886 146.421  11.102  1.00 51.40    -0.074 C 
HETATM    6  C6  VFQ S1620     -49.119 145.472  10.203  1.00 51.40    -0.048 C 
HETATM    7  C7  VFQ S1620     -48.070 145.065   9.251  1.00 51.40     0.009 C 
HETATM    8  C8  VFQ S1620     -47.121 144.221   9.627  1.00 51.40     0.007 C 
HETATM    9  C9  VFQ S1620     -46.087 143.778   8.696  1.00 51.40    -0.062 C 
HETATM   10  C10 VFQ S1620     -45.171 142.956   9.202  1.00 51.40     0.007 C 
HETATM   11  C11 VFQ S1620     -44.073 142.358   8.469  1.00 51.40     0.001 C 
HETATM   12  C12 VFQ S1620     -43.539 141.347   9.130  1.00 51.40     0.007 C 
HETATM   13  C13 VFQ S1620     -42.438 140.527   8.628  1.00 51.40    -0.062 C 
HETATM   14  C14 VFQ S1620     -42.091 139.469   9.361  1.00 51.40     0.007 C 
HETATM   15  C15 VFQ S1620     -41.048 138.552   8.942  1.00 51.40     0.001 C 
HETATM   16  C16 VFQ S1620     -51.232 145.201   8.852  1.00 51.40     0.020 C 
HETATM   17  C17 VFQ S1620     -50.208 143.300  10.025  1.00 51.40     0.020 C 
HETATM   18  C18 VFQ S1620     -47.797 147.435  10.943  1.00 51.40     0.044 C 
HETATM   19  C19 VFQ S1620     -46.099 144.229   7.269  1.00 51.40     0.048 C 
HETATM   20  C20 VFQ S1620     -41.756 140.864   7.345  1.00 51.40     0.048 C 
HETATM   21  O3  VFQ S1620     -52.233 146.903  12.546  1.00 51.40    -0.395 OA
ATOM     22  H3  VFQ S1620     -52.859 146.285  12.902  1.00  0.00     0.210 HD
HETATM   23  C21 VFQ S1620     -34.127 128.371   6.999  1.00 13.75    -0.018 C 
HETATM   24  C22 VFQ S1620     -33.267 127.570   6.033  1.00 13.75     0.045 C 
HETATM   25  C23 VFQ S1620     -31.785 127.700   6.295  1.00 13.75     0.123 C 
HETATM   26  C24 VFQ S1620     -31.418 129.159   6.238  1.00 13.75     0.066 C 
HETATM   27  C25 VFQ S1620     -32.185 129.909   7.285  1.00 13.75    -0.074 C 
HETATM   28  C26 VFQ S1620     -33.455 129.598   7.597  1.00 13.75    -0.048 C 
HETATM   29  C27 VFQ S1620     -34.263 130.385   8.573  1.00 13.75     0.009 C 
HETATM   30  C28 VFQ S1620     -34.873 131.547   8.306  1.00 13.75     0.007 C 
HETATM   31  C29 VFQ S1620     -35.678 132.239   9.315  1.00 51.40    -0.062 C 
HETATM   32  C30 VFQ S1620     -36.674 133.012   8.877  1.00 51.40     0.007 C 
HETATM   33  C31 VFQ S1620     -37.577 133.744   9.751  1.00 51.40     0.001 C 
HETATM   34  C32 VFQ S1620     -38.284 134.701   9.172  1.00 51.40     0.007 C 
HETATM   35  C33 VFQ S1620     -39.270 135.528   9.880  1.00 51.40    -0.062 C 
HETATM   36  C34 VFQ S1620     -39.768 136.565   9.203  1.00 51.40     0.007 C 
HETATM   37  C35 VFQ S1620     -40.783 137.483   9.687  1.00 51.40     0.001 C 
HETATM   38  C36 VFQ S1620     -34.496 127.460   8.161  1.00 13.75     0.020 C 
HETATM   39  C37 VFQ S1620     -35.386 128.752   6.235  1.00 13.75     0.020 C 
HETATM   40  C38 VFQ S1620     -31.417 130.998   7.958  1.00 13.75     0.044 C 
HETATM   41  C39 VFQ S1620     -35.389 132.083  10.774  1.00 51.40     0.048 C 
HETATM   42  C40 VFQ S1620     -39.705 135.197  11.272  1.00 51.40     0.048 C 
HETATM   43  O23 VFQ S1620     -31.053 126.993   5.292  1.00 13.75    -0.395 OA
ATOM     44  H23 VFQ S1620     -31.284 126.073   5.328  1.00  0.00     0.210 HD
ENDROOT
TORSDOF 12
