REMARK VINA RESULT:    -9.260      2.441      4.291
REMARK INTER + INTRA:          -9.672
REMARK INTER:                  -2.799
REMARK INTRA:                  -6.873
REMARK UNBOUND:                -0.412
REMARK  0 active torsions:
REMARK  status: ('A' for Active; 'I' for Inactive)
REMARK       I    between atoms: C3_3  and  O3_21 
REMARK       I    between atoms: C6_6  and  C7_7 
REMARK       I    between atoms: C8_8  and  C9_9 
REMARK       I    between atoms: C10_10  and  C11_11 
REMARK       I    between atoms: C12_12  and  C13_13 
REMARK       I    between atoms: C14_14  and  C15_15 
REMARK       I    between atoms: C23_25  and  O23_43 
REMARK       I    between atoms: C26_28  and  C27_29 
REMARK       I    between atoms: C28_30  and  C29_31 
REMARK       I    between atoms: C30_32  and  C31_33 
REMARK       I    between atoms: C32_34  and  C33_35 
REMARK       I    between atoms: C34_36  and  C35_37 
ROOT
HETATM    1  C1  VFQ n1621     -49.483 150.214   8.390  1.00 48.43    -0.018 C 
HETATM    2  C2  VFQ n1621     -50.374 150.880   7.352  1.00 44.61     0.045 C 
HETATM    3  C3  VFQ n1621     -51.775 150.316   7.210  1.00 44.41     0.123 C 
HETATM    4  C4  VFQ n1621     -52.367 150.002   8.562  1.00 41.53     0.066 C 
HETATM    5  C5  VFQ n1621     -51.487 148.991   9.226  1.00 37.72    -0.074 C 
HETATM    6  C6  VFQ n1621     -50.167 149.172   9.258  1.00 43.52    -0.048 C 
HETATM    7  C7  VFQ n1621     -49.299 148.388  10.166  1.00 44.60     0.009 C 
HETATM    8  C8  VFQ n1621     -48.888 147.162   9.870  1.00 43.22     0.007 C 
HETATM    9  C9  VFQ n1621     -47.993 146.428  10.764  1.00 45.04    -0.062 C 
HETATM   10  C10 VFQ n1621     -47.470 145.323  10.251  1.00 43.71     0.007 C 
HETATM   11  C11 VFQ n1621     -46.521 144.464  10.918  1.00 42.87     0.001 C 
HETATM   12  C12 VFQ n1621     -46.078 143.512  10.122  1.00 44.70     0.007 C 
HETATM   13  C13 VFQ n1621     -45.053 142.549  10.517  1.00 42.63    -0.062 C 
HETATM   14  C14 VFQ n1621     -44.659 141.679   9.586  1.00 42.62     0.007 C 
HETATM   15  C15 VFQ n1621     -43.618 140.711   9.862  1.00 44.33     0.001 C 
HETATM   16  C16 VFQ n1621     -48.883 151.350   9.211  1.00 47.48     0.020 C 
HETATM   17  C17 VFQ n1621     -48.371 149.457   7.688  1.00 54.25     0.020 C 
HETATM   18  C18 VFQ n1621     -52.216 148.206  10.265  1.00 37.77     0.044 C 
HETATM   19  C19 VFQ n1621     -47.682 146.918  12.142  1.00 46.17     0.048 C 
HETATM   20  C20 VFQ n1621     -44.450 142.595  11.886  1.00 40.87     0.048 C 
HETATM   21  O3  VFQ n1621     -52.600 151.284   6.561  1.00 48.83    -0.395 OA
ATOM     22  H3  VFQ n1621     -53.477 150.930   6.472  1.00  0.00     0.210 HD
HETATM   23  C21 VFQ n1621     -34.984 131.628   8.500  1.00 71.39    -0.018 C 
HETATM   24  C22 VFQ n1621     -33.918 130.660   8.996  1.00 71.39     0.045 C 
HETATM   25  C23 VFQ n1621     -34.160 129.944  10.319  1.00 71.39     0.123 C 
HETATM   26  C24 VFQ n1621     -35.016 130.776  11.251  1.00 71.39     0.066 C 
HETATM   27  C25 VFQ n1621     -36.286 131.084  10.518  1.00 71.39    -0.074 C 
HETATM   28  C26 VFQ n1621     -36.272 131.604   9.292  1.00 71.39    -0.048 C 
HETATM   29  C27 VFQ n1621     -37.493 132.168   8.656  1.00 71.39     0.009 C 
HETATM   30  C28 VFQ n1621     -37.898 133.416   8.907  1.00 71.39     0.007 C 
HETATM   31  C29 VFQ n1621     -39.061 134.025   8.295  1.00 54.19    -0.062 C 
HETATM   32  C30 VFQ n1621     -39.208 135.338   8.475  1.00 54.84     0.007 C 
HETATM   33  C31 VFQ n1621     -40.303 136.116   7.934  1.00 51.40     0.001 C 
HETATM   34  C32 VFQ n1621     -40.720 137.097   8.715  1.00 48.08     0.007 C 
HETATM   35  C33 VFQ n1621     -41.818 137.982   8.330  1.00 45.58    -0.062 C 
HETATM   36  C34 VFQ n1621     -42.213 138.913   9.200  1.00 47.58     0.007 C 
HETATM   37  C35 VFQ n1621     -43.280 139.853   8.913  1.00 48.15     0.001 C 
HETATM   38  C36 VFQ n1621     -35.330 131.251   7.075  1.00 71.39     0.020 C 
HETATM   39  C37 VFQ n1621     -34.382 133.029   8.477  1.00 71.39     0.020 C 
HETATM   40  C38 VFQ n1621     -37.552 130.751  11.229  1.00 71.39     0.044 C 
HETATM   41  C39 VFQ n1621     -39.996 133.190   7.479  1.00 53.01     0.048 C 
HETATM   42  C40 VFQ n1621     -42.460 137.822   6.996  1.00 46.34     0.048 C 
HETATM   43  O23 VFQ n1621     -32.903 129.720  10.965  1.00 71.39    -0.395 OA
ATOM     44  H23 VFQ n1621     -33.054 129.273  11.790  1.00  0.00     0.210 HD
ENDROOT
TORSDOF 12
