REMARK VINA RESULT:   -11.880      1.399      1.541
REMARK INTER + INTRA:         -14.526
REMARK INTER:                 -12.247
REMARK INTRA:                  -2.278
REMARK UNBOUND:                -2.646
REMARK  0 active torsions:
REMARK  status: ('A' for Active; 'I' for Inactive)
REMARK       I    between atoms: C3_3  and  O3_21 
REMARK       I    between atoms: C6_6  and  C7_7 
REMARK       I    between atoms: C8_8  and  C9_9 
REMARK       I    between atoms: C10_10  and  C11_11 
REMARK       I    between atoms: C12_12  and  C13_13 
REMARK       I    between atoms: C14_14  and  C15_15 
REMARK       I    between atoms: C23_25  and  O23_43 
REMARK       I    between atoms: C26_28  and  C27_29 
REMARK       I    between atoms: C28_30  and  C29_31 
REMARK       I    between atoms: C30_32  and  C31_33 
REMARK       I    between atoms: C32_34  and  C33_35 
REMARK       I    between atoms: C34_36  and  C35_37 
ROOT
HETATM    1  C1  VFQ y1621     -49.558 144.203  10.883  1.00 37.79    -0.018 C 
HETATM    2  C2  VFQ y1621     -50.461 144.900  11.887  1.00 37.79     0.045 C 
HETATM    3  C3  VFQ y1621     -49.791 145.890  12.811  1.00 37.79     0.123 C 
HETATM    4  C4  VFQ y1621     -48.952 146.841  12.000  1.00 37.79     0.066 C 
HETATM    5  C5  VFQ y1621     -47.997 146.130  11.091  1.00 37.79    -0.074 C 
HETATM    6  C6  VFQ y1621     -48.297 144.957  10.513  1.00 37.79    -0.048 C 
HETATM    7  C7  VFQ y1621     -47.429 144.375   9.454  1.00 37.79     0.009 C 
HETATM    8  C8  VFQ y1621     -46.323 143.669   9.711  1.00 37.79     0.007 C 
HETATM    9  C9  VFQ y1621     -45.493 143.096   8.649  1.00 37.79    -0.062 C 
HETATM   10  C10 VFQ y1621     -44.775 142.022   8.974  1.00 37.79     0.007 C 
HETATM   11  C11 VFQ y1621     -43.905 141.293   8.067  1.00 37.79     0.001 C 
HETATM   12  C12 VFQ y1621     -43.405 140.195   8.610  1.00 37.79     0.007 C 
HETATM   13  C13 VFQ y1621     -42.524 139.226   7.954  1.00 37.79    -0.062 C 
HETATM   14  C14 VFQ y1621     -41.999 138.255   8.704  1.00 37.79     0.007 C 
HETATM   15  C15 VFQ y1621     -41.149 137.239   8.108  1.00 37.79     0.001 C 
HETATM   16  C16 VFQ y1621     -50.436 143.888   9.681  1.00 37.79     0.020 C 
HETATM   17  C17 VFQ y1621     -49.098 142.895  11.482  1.00 37.79     0.020 C 
HETATM   18  C18 VFQ y1621     -46.860 146.996  10.642  1.00 37.79     0.044 C 
HETATM   19  C19 VFQ y1621     -45.459 143.690   7.280  1.00 37.79     0.048 C 
HETATM   20  C20 VFQ y1621     -42.242 139.307   6.488  1.00 37.79     0.048 C 
HETATM   21  O3  VFQ y1621     -50.807 146.666  13.445  1.00 37.79    -0.395 OA
ATOM     22  H3  VFQ y1621     -50.386 147.289  14.026  1.00  0.00     0.210 HD
HETATM   23  C21 VFQ y1621     -34.155 126.768   6.819  1.00 87.69    -0.018 C 
HETATM   24  C22 VFQ y1621     -33.197 125.869   6.059  1.00 87.69     0.045 C 
HETATM   25  C23 VFQ y1621     -32.724 126.368   4.699  1.00 87.69     0.123 C 
HETATM   26  C24 VFQ y1621     -32.662 127.881   4.548  1.00 87.69     0.066 C 
HETATM   27  C25 VFQ y1621     -32.851 128.623   5.846  1.00 87.69    -0.074 C 
HETATM   28  C26 VFQ y1621     -33.724 128.210   6.761  1.00 87.69    -0.048 C 
HETATM   29  C27 VFQ y1621     -34.269 129.146   7.772  1.00 87.69     0.009 C 
HETATM   30  C28 VFQ y1621     -35.285 129.950   7.479  1.00 87.69     0.007 C 
HETATM   31  C29 VFQ y1621     -35.859 130.872   8.460  1.00 37.79    -0.062 C 
HETATM   32  C30 VFQ y1621     -37.011 131.454   8.136  1.00 37.79     0.007 C 
HETATM   33  C31 VFQ y1621     -37.729 132.394   8.976  1.00 37.79     0.001 C 
HETATM   34  C32 VFQ y1621     -38.330 133.367   8.312  1.00 37.79     0.007 C 
HETATM   35  C33 VFQ y1621     -39.115 134.405   8.980  1.00 37.79    -0.062 C 
HETATM   36  C34 VFQ y1621     -39.674 135.365   8.245  1.00 37.79     0.007 C 
HETATM   37  C35 VFQ y1621     -40.485 136.394   8.876  1.00 37.79     0.001 C 
HETATM   38  C36 VFQ y1621     -34.112 126.341   8.269  1.00 87.69     0.020 C 
HETATM   39  C37 VFQ y1621     -35.583 126.593   6.312  1.00 87.69     0.020 C 
HETATM   40  C38 VFQ y1621     -32.009 129.839   6.070  1.00 87.69     0.044 C 
HETATM   41  C39 VFQ y1621     -35.170 131.135   9.760  1.00 37.79     0.048 C 
HETATM   42  C40 VFQ y1621     -39.296 134.358  10.460  1.00 37.79     0.048 C 
HETATM   43  O23 VFQ y1621     -33.635 125.863   3.725  1.00 87.69    -0.395 OA
ATOM     44  H23 VFQ y1621     -33.341 126.174   2.877  1.00  0.00     0.210 HD
ENDROOT
TORSDOF 12
