REMARK VINA RESULT:    -7.864      1.698     16.738
REMARK INTER + INTRA:          -9.941
REMARK INTER:                  -5.616
REMARK INTRA:                  -4.326
REMARK UNBOUND:                -2.077
REMARK  0 active torsions:
REMARK  status: ('A' for Active; 'I' for Inactive)
REMARK       I    between atoms: C3_3  and  O3_21 
REMARK       I    between atoms: C6_6  and  C7_7 
REMARK       I    between atoms: C8_8  and  C9_9 
REMARK       I    between atoms: C10_10  and  C11_11 
REMARK       I    between atoms: C12_12  and  C13_13 
REMARK       I    between atoms: C14_14  and  C15_15 
REMARK       I    between atoms: C23_25  and  O23_43 
REMARK       I    between atoms: C26_28  and  C27_29 
REMARK       I    between atoms: C28_30  and  C29_31 
REMARK       I    between atoms: C30_32  and  C31_33 
REMARK       I    between atoms: C32_34  and  C33_35 
REMARK       I    between atoms: C34_36  and  C35_37 
ROOT
HETATM    1  C1  VFQ 8 618     -34.511 127.042   5.645  1.00 13.13    -0.018 C 
HETATM    2  C2  VFQ 8 618     -33.853 126.186   4.572  1.00 13.13     0.045 C 
HETATM    3  C3  VFQ 8 618     -32.692 126.838   3.856  1.00 13.13     0.123 C 
HETATM    4  C4  VFQ 8 618     -31.700 127.352   4.868  1.00 13.13     0.066 C 
HETATM    5  C5  VFQ 8 618     -32.357 128.287   5.844  1.00 13.13    -0.074 C 
HETATM    6  C6  VFQ 8 618     -33.620 128.108   6.265  1.00 13.13    -0.048 C 
HETATM    7  C7  VFQ 8 618     -34.191 128.894   7.396  1.00 13.13     0.009 C 
HETATM    8  C8  VFQ 8 618     -34.686 130.136   7.290  1.00 13.13     0.007 C 
HETATM    9  C9  VFQ 8 618     -35.256 130.861   8.440  1.00 13.13    -0.062 C 
HETATM   10  C10 VFQ 8 618     -36.085 131.873   8.175  1.00 13.13     0.007 C 
HETATM   11  C11 VFQ 8 618     -36.763 132.683   9.178  1.00 13.13     0.001 C 
HETATM   12  C12 VFQ 8 618     -37.740 133.423   8.675  1.00 13.13     0.007 C 
HETATM   13  C13 VFQ 8 618     -38.645 134.333   9.392  1.00 13.13    -0.062 C 
HETATM   14  C14 VFQ 8 618     -39.388 135.178   8.662  1.00 13.13     0.007 C 
HETATM   15  C15 VFQ 8 618     -40.339 136.085   9.282  1.00 13.13     0.001 C 
HETATM   16  C16 VFQ 8 618     -35.004 126.061   6.694  1.00 13.13     0.020 C 
HETATM   17  C17 VFQ 8 618     -35.689 127.769   5.017  1.00 13.13     0.020 C 
HETATM   18  C18 VFQ 8 618     -31.388 129.191   6.542  1.00 13.13     0.044 C 
HETATM   19  C19 VFQ 8 618     -34.922 130.481   9.850  1.00 13.13     0.048 C 
HETATM   20  C20 VFQ 8 618     -38.771 134.296  10.880  1.00 13.13     0.048 C 
HETATM   21  O3  VFQ 8 618     -32.046 125.850   3.054  1.00 13.13    -0.395 OA
ATOM     22  H3  VFQ 8 618     -32.671 125.526   2.417  1.00  0.00     0.210 HD
HETATM   23  C21 VFQ 8 618     -49.732 144.769  10.633  1.00 47.88    -0.018 C 
HETATM   24  C22 VFQ 8 618     -50.690 144.828  11.806  1.00 47.88     0.045 C 
HETATM   25  C23 VFQ 8 618     -50.155 145.759  12.874  1.00 47.88     0.123 C 
HETATM   26  C24 VFQ 8 618     -48.878 145.169  13.445  1.00 47.88     0.066 C 
HETATM   27  C25 VFQ 8 618     -47.899 144.890  12.336  1.00 47.88    -0.074 C 
HETATM   28  C26 VFQ 8 618     -48.303 144.573  11.099  1.00 47.88    -0.048 C 
HETATM   29  C27 VFQ 8 618     -47.328 144.033  10.130  1.00 47.88     0.009 C 
HETATM   30  C28 VFQ 8 618     -46.945 142.761  10.176  1.00 47.88     0.007 C 
HETATM   31  C29 VFQ 8 618     -45.978 142.240   9.184  1.00 13.13    -0.062 C 
HETATM   32  C30 VFQ 8 618     -45.448 141.051   9.473  1.00 13.13     0.007 C 
HETATM   33  C31 VFQ 8 618     -44.496 140.340   8.637  1.00 13.13     0.001 C 
HETATM   34  C32 VFQ 8 618     -43.650 139.534   9.261  1.00 13.13     0.007 C 
HETATM   35  C33 VFQ 8 618     -42.659 138.743   8.524  1.00 13.13    -0.062 C 
HETATM   36  C34 VFQ 8 618     -42.070 137.729   9.162  1.00 13.13     0.007 C 
HETATM   37  C35 VFQ 8 618     -41.100 136.859   8.520  1.00 13.13     0.001 C 
HETATM   38  C36 VFQ 8 618     -49.808 146.073   9.850  1.00 47.88     0.020 C 
HETATM   39  C37 VFQ 8 618     -50.169 143.630   9.720  1.00 47.88     0.020 C 
HETATM   40  C38 VFQ 8 618     -46.441 144.988  12.680  1.00 47.88     0.044 C 
HETATM   41  C39 VFQ 8 618     -45.637 142.986   7.932  1.00 13.13     0.048 C 
HETATM   42  C40 VFQ 8 618     -42.328 139.062   7.105  1.00 13.13     0.048 C 
HETATM   43  O23 VFQ 8 618     -51.126 145.916  13.909  1.00 47.88    -0.395 OA
ATOM     44  H23 VFQ 8 618     -50.790 146.500  14.578  1.00  0.00     0.210 HD
ENDROOT
TORSDOF 12
