REMARK VINA RESULT:    -6.622      2.152     17.041
REMARK INTER + INTRA:          -9.945
REMARK INTER:                  -9.845
REMARK INTRA:                  -0.100
REMARK UNBOUND:                -3.323
REMARK  0 active torsions:
REMARK  status: ('A' for Active; 'I' for Inactive)
REMARK       I    between atoms: C3_3  and  O3_21 
REMARK       I    between atoms: C6_6  and  C7_7 
REMARK       I    between atoms: C8_8  and  C9_9 
REMARK       I    between atoms: C10_10  and  C11_11 
REMARK       I    between atoms: C12_12  and  C13_13 
REMARK       I    between atoms: C14_14  and  C15_15 
REMARK       I    between atoms: C23_25  and  O23_43 
REMARK       I    between atoms: C26_28  and  C27_29 
REMARK       I    between atoms: C28_30  and  C29_31 
REMARK       I    between atoms: C30_32  and  C31_33 
REMARK       I    between atoms: C32_34  and  C33_35 
REMARK       I    between atoms: C34_36  and  C35_37 
ROOT
HETATM    1  C1  VFQ D3621     -34.144 128.197   7.088  1.00 23.41    -0.018 C 
HETATM    2  C2  VFQ D3621     -33.389 127.399   6.010  1.00 23.79     0.045 C 
HETATM    3  C3  VFQ D3621     -32.150 127.984   5.339  1.00 23.28     0.123 C 
HETATM    4  C4  VFQ D3621     -31.486 129.122   6.131  1.00 23.70     0.066 C 
HETATM    5  C5  VFQ D3621     -32.245 129.870   7.189  1.00 23.84    -0.074 C 
HETATM    6  C6  VFQ D3621     -33.479 129.478   7.670  1.00 22.99    -0.048 C 
HETATM    7  C7  VFQ D3621     -34.247 130.193   8.724  1.00 20.55     0.009 C 
HETATM    8  C8  VFQ D3621     -35.012 131.286   8.513  1.00 19.35     0.007 C 
HETATM    9  C9  VFQ D3621     -35.764 132.109   9.463  1.00 18.45    -0.062 C 
HETATM   10  C10 VFQ D3621     -36.557 133.077   8.952  1.00 18.11     0.007 C 
HETATM   11  C11 VFQ D3621     -37.447 133.938   9.678  1.00 18.44     0.001 C 
HETATM   12  C12 VFQ D3621     -38.262 134.823   9.059  1.00 19.34     0.007 C 
HETATM   13  C13 VFQ D3621     -39.275 135.671   9.714  1.00 20.12    -0.062 C 
HETATM   14  C14 VFQ D3621     -40.032 136.487   8.940  1.00 19.73     0.007 C 
HETATM   15  C15 VFQ D3621     -41.119 137.362   9.373  1.00 19.24     0.001 C 
HETATM   16  C16 VFQ D3621     -34.327 127.139   8.182  1.00 23.73     0.020 C 
HETATM   17  C17 VFQ D3621     -35.530 128.538   6.523  1.00 23.42     0.020 C 
HETATM   18  C18 VFQ D3621     -31.443 131.039   7.631  1.00 22.78     0.044 C 
HETATM   19  C19 VFQ D3621     -35.663 131.772  10.918  1.00 16.12     0.048 C 
HETATM   20  C20 VFQ D3621     -39.413 135.546  11.206  1.00 17.75     0.048 C 
HETATM   21  O3  VFQ D3621     -31.211 126.954   5.062  1.00 21.52    -0.395 OA
ATOM     22  H3  VFQ D3621     -30.440 127.317   4.645  1.00  0.00     0.210 HD
HETATM   23  C21 VFQ D3621     -50.937 145.997  10.206  1.00 38.90    -0.018 C 
HETATM   24  C22 VFQ D3621     -51.784 146.781  11.207  1.00 38.90     0.045 C 
HETATM   25  C23 VFQ D3621     -51.358 146.656  12.667  1.00 38.90     0.123 C 
HETATM   26  C24 VFQ D3621     -50.543 145.395  12.873  1.00 38.90     0.066 C 
HETATM   27  C25 VFQ D3621     -49.331 145.544  12.001  1.00 38.90    -0.074 C 
HETATM   28  C26 VFQ D3621     -49.531 145.734  10.693  1.00 38.90    -0.048 C 
HETATM   29  C27 VFQ D3621     -48.465 145.470   9.712  1.00 38.90     0.009 C 
HETATM   30  C28 VFQ D3621     -47.859 144.301   9.909  1.00 38.90     0.007 C 
HETATM   31  C29 VFQ D3621     -46.879 143.710   8.935  1.00 21.21    -0.062 C 
HETATM   32  C30 VFQ D3621     -46.287 142.539   9.272  1.00 20.08     0.007 C 
HETATM   33  C31 VFQ D3621     -45.313 141.817   8.486  1.00 17.89     0.001 C 
HETATM   34  C32 VFQ D3621     -44.605 140.767   8.969  1.00 17.64     0.007 C 
HETATM   35  C33 VFQ D3621     -43.546 139.983   8.288  1.00 17.45    -0.062 C 
HETATM   36  C34 VFQ D3621     -42.885 139.046   9.009  1.00 15.95     0.007 C 
HETATM   37  C35 VFQ D3621     -41.790 138.200   8.560  1.00 18.41     0.001 C 
HETATM   38  C36 VFQ D3621     -50.877 146.740   8.878  1.00 38.90     0.020 C 
HETATM   39  C37 VFQ D3621     -51.572 144.626   9.990  1.00 38.90     0.020 C 
HETATM   40  C38 VFQ D3621     -47.970 145.610  12.653  1.00 38.90     0.044 C 
HETATM   41  C39 VFQ D3621     -46.549 144.487   7.688  1.00 22.05     0.048 C 
HETATM   42  C40 VFQ D3621     -43.227 140.337   6.857  1.00 11.49     0.048 C 
HETATM   43  O23 VFQ D3621     -52.512 146.606  13.511  1.00 38.90    -0.395 OA
ATOM     44  H23 VFQ D3621     -52.247 146.527  14.420  1.00  0.00     0.210 HD
ENDROOT
TORSDOF 12
