REMARK VINA RESULT:    -9.742      0.000      0.000
REMARK INTER + INTRA:         -12.010
REMARK INTER:                  -9.742
REMARK INTRA:                  -2.269
REMARK UNBOUND:                -2.269
REMARK  0 active torsions:
REMARK  status: ('A' for Active; 'I' for Inactive)
REMARK       I    between atoms: C3_3  and  O3_21 
REMARK       I    between atoms: C6_6  and  C7_7 
REMARK       I    between atoms: C8_8  and  C9_9 
REMARK       I    between atoms: C10_10  and  C11_11 
REMARK       I    between atoms: C12_12  and  C13_13 
REMARK       I    between atoms: C14_14  and  C15_15 
REMARK       I    between atoms: C23_25  and  O23_43 
REMARK       I    between atoms: C26_28  and  C27_29 
REMARK       I    between atoms: C28_30  and  C29_31 
REMARK       I    between atoms: C30_32  and  C31_33 
REMARK       I    between atoms: C32_34  and  C33_35 
REMARK       I    between atoms: C34_36  and  C35_37 
ROOT
HETATM    1  C1  VFQ I8620     -49.171 144.604  12.763  1.00 16.69    -0.018 C 
HETATM    2  C2  VFQ I8620     -49.674 145.397  13.979  1.00 15.88     0.045 C 
HETATM    3  C3  VFQ I8620     -48.784 146.492  14.550  1.00 15.19     0.123 C 
HETATM    4  C4  VFQ I8620     -47.899 147.198  13.518  1.00 16.30     0.066 C 
HETATM    5  C5  VFQ I8620     -47.365 146.391  12.378  1.00 15.97    -0.074 C 
HETATM    6  C6  VFQ I8620     -47.933 145.193  12.014  1.00 16.56    -0.048 C 
HETATM    7  C7  VFQ I8620     -47.383 144.411  10.905  1.00 18.44     0.009 C 
HETATM    8  C8  VFQ I8620     -46.285 143.637  10.945  1.00 18.42     0.007 C 
HETATM    9  C9  VFQ I8620     -45.670 142.961   9.815  1.00 20.59    -0.062 C 
HETATM   10  C10 VFQ I8620     -44.628 142.140  10.067  1.00 20.51     0.007 C 
HETATM   11  C11 VFQ I8620     -43.896 141.376   9.106  1.00 21.63     0.001 C 
HETATM   12  C12 VFQ I8620     -43.011 140.461   9.510  1.00 21.98     0.007 C 
HETATM   13  C13 VFQ I8620     -42.199 139.562   8.692  1.00 23.28    -0.062 C 
HETATM   14  C14 VFQ I8620     -41.462 138.637   9.347  1.00 23.72     0.007 C 
HETATM   15  C15 VFQ I8620     -40.650 137.594   8.788  1.00 25.53     0.001 C 
HETATM   16  C16 VFQ I8620     -50.390 144.564  11.823  1.00 15.77     0.020 C 
HETATM   17  C17 VFQ I8620     -48.901 143.162  13.233  1.00 17.40     0.020 C 
HETATM   18  C18 VFQ I8620     -46.196 147.111  11.804  1.00 16.04     0.044 C 
HETATM   19  C19 VFQ I8620     -46.271 143.184   8.451  1.00 19.43     0.048 C 
HETATM   20  C20 VFQ I8620     -42.297 139.682   7.194  1.00 18.80     0.048 C 
HETATM   21  O3  VFQ I8620     -49.570 147.441  15.242  1.00 16.64    -0.395 OA
ATOM     22  H3  VFQ I8620     -49.014 148.125  15.598  1.00  0.00     0.210 HD
HETATM   23  C21 VFQ I8620     -34.421 126.812   6.399  1.00 71.46    -0.018 C 
HETATM   24  C22 VFQ I8620     -33.841 126.031   5.232  1.00 75.98     0.045 C 
HETATM   25  C23 VFQ I8620     -32.460 126.416   4.749  1.00 84.37     0.123 C 
HETATM   26  C24 VFQ I8620     -32.331 127.908   4.625  1.00 79.68     0.066 C 
HETATM   27  C25 VFQ I8620     -32.678 128.554   5.931  1.00 81.86    -0.074 C 
HETATM   28  C26 VFQ I8620     -33.714 128.132   6.676  1.00 72.92    -0.048 C 
HETATM   29  C27 VFQ I8620     -34.168 128.946   7.828  1.00 76.42     0.009 C 
HETATM   30  C28 VFQ I8620     -35.007 129.966   7.666  1.00 69.46     0.007 C 
HETATM   31  C29 VFQ I8620     -35.495 130.820   8.791  1.00 33.65    -0.062 C 
HETATM   32  C30 VFQ I8620     -36.347 131.821   8.483  1.00 30.63     0.007 C 
HETATM   33  C31 VFQ I8620     -36.991 132.728   9.397  1.00 28.70     0.001 C 
HETATM   34  C32 VFQ I8620     -37.792 133.722   8.960  1.00 25.67     0.007 C 
HETATM   35  C33 VFQ I8620     -38.520 134.732   9.730  1.00 24.63    -0.062 C 
HETATM   36  C34 VFQ I8620     -39.230 135.654   9.046  1.00 23.98     0.007 C 
HETATM   37  C35 VFQ I8620     -40.007 136.734   9.586  1.00 25.49     0.001 C 
HETATM   38  C36 VFQ I8620     -34.330 125.952   7.649  1.00 75.59     0.020 C 
HETATM   39  C37 VFQ I8620     -35.900 126.978   6.082  1.00 74.59     0.020 C 
HETATM   40  C38 VFQ I8620     -31.780 129.676   6.353  1.00 90.73     0.044 C 
HETATM   41  C39 VFQ I8620     -35.015 130.524  10.189  1.00 33.66     0.048 C 
HETATM   42  C40 VFQ I8620     -38.413 134.689  11.220  1.00 25.13     0.048 C 
HETATM   43  O23 VFQ I8620     -32.264 125.851   3.453  1.00 94.57    -0.395 OA
ATOM     44  H23 VFQ I8620     -31.397 126.093   3.150  1.00  0.00     0.210 HD
ENDROOT
TORSDOF 12
