REMARK VINA RESULT:    -8.070      1.382     16.852
REMARK INTER + INTRA:          -8.537
REMARK INTER:                  -8.187
REMARK INTRA:                  -0.350
REMARK UNBOUND:                -0.467
REMARK  0 active torsions:
REMARK  status: ('A' for Active; 'I' for Inactive)
REMARK       I    between atoms: C3_3  and  O3_21 
REMARK       I    between atoms: C6_6  and  C7_7 
REMARK       I    between atoms: C8_8  and  C9_9 
REMARK       I    between atoms: C10_10  and  C11_11 
REMARK       I    between atoms: C12_12  and  C13_13 
REMARK       I    between atoms: C14_14  and  C15_15 
REMARK       I    between atoms: C23_25  and  O23_43 
REMARK       I    between atoms: C26_28  and  C27_29 
REMARK       I    between atoms: C28_30  and  C29_31 
REMARK       I    between atoms: C30_32  and  C31_33 
REMARK       I    between atoms: C32_34  and  C33_35 
REMARK       I    between atoms: C34_36  and  C35_37 
ROOT
HETATM    1  C1  VFQ 51621     -49.156 145.820  12.159  1.00 87.69    -0.018 C 
HETATM    2  C2  VFQ 51621     -50.011 145.964  13.404  1.00 87.69     0.045 C 
HETATM    3  C3  VFQ 51621     -49.839 147.248  14.207  1.00 87.69     0.123 C 
HETATM    4  C4  VFQ 51621     -48.457 147.883  14.129  1.00 87.69     0.066 C 
HETATM    5  C5  VFQ 51621     -47.429 147.004  13.462  1.00 87.69    -0.074 C 
HETATM    6  C6  VFQ 51621     -47.736 146.253  12.408  1.00 87.69    -0.048 C 
HETATM    7  C7  VFQ 51621     -46.699 145.853  11.429  1.00 87.69     0.009 C 
HETATM    8  C8  VFQ 51621     -45.902 144.817  11.664  1.00 87.69     0.007 C 
HETATM    9  C9  VFQ 51621     -44.875 144.377  10.708  1.00 87.69    -0.062 C 
HETATM   10  C10 VFQ 51621     -44.370 143.161  10.893  1.00 87.69     0.007 C 
HETATM   11  C11 VFQ 51621     -43.364 142.514  10.065  1.00 87.69     0.001 C 
HETATM   12  C12 VFQ 51621     -42.834 141.411  10.578  1.00 87.69     0.007 C 
HETATM   13  C13 VFQ 51621     -41.838 140.596   9.865  1.00 87.69    -0.062 C 
HETATM   14  C14 VFQ 51621     -41.454 139.447  10.425  1.00 87.69     0.007 C 
HETATM   15  C15 VFQ 51621     -40.515 138.558   9.761  1.00 87.69     0.001 C 
HETATM   16  C16 VFQ 51621     -49.772 146.578  10.987  1.00 87.69     0.020 C 
HETATM   17  C17 VFQ 51621     -49.125 144.349  11.807  1.00 87.69     0.020 C 
HETATM   18  C18 VFQ 51621     -46.217 147.881  13.464  1.00 87.69     0.044 C 
HETATM   19  C19 VFQ 51621     -44.419 145.257   9.589  1.00 87.69     0.048 C 
HETATM   20  C20 VFQ 51621     -41.296 141.027   8.538  1.00 87.69     0.048 C 
HETATM   21  O3  VFQ 51621     -50.786 148.188  13.706  1.00 87.69    -0.395 OA
ATOM     22  H3  VFQ 51621     -50.679 148.989  14.207  1.00  0.00     0.210 HD
HETATM   23  C21 VFQ 51621     -33.989 128.158   6.960  1.00 94.67    -0.018 C 
HETATM   24  C22 VFQ 51621     -33.083 127.258   6.130  1.00 94.67     0.045 C 
HETATM   25  C23 VFQ 51621     -31.648 127.710   5.964  1.00 94.67     0.123 C 
HETATM   26  C24 VFQ 51621     -31.631 129.185   5.662  1.00 94.67     0.066 C 
HETATM   27  C25 VFQ 51621     -32.262 129.939   6.792  1.00 94.67    -0.074 C 
HETATM   28  C26 VFQ 51621     -33.362 129.472   7.387  1.00 94.67    -0.048 C 
HETATM   29  C27 VFQ 51621     -33.999 130.219   8.497  1.00 94.67     0.009 C 
HETATM   30  C28 VFQ 51621     -34.919 131.151   8.261  1.00 94.67     0.007 C 
HETATM   31  C29 VFQ 51621     -35.584 131.892   9.326  1.00 87.69    -0.062 C 
HETATM   32  C30 VFQ 51621     -36.651 132.606   8.981  1.00 87.69     0.007 C 
HETATM   33  C31 VFQ 51621     -37.449 133.384   9.907  1.00 87.69     0.001 C 
HETATM   34  C32 VFQ 51621     -37.925 134.523   9.433  1.00 87.69     0.007 C 
HETATM   35  C33 VFQ 51621     -38.778 135.409  10.227  1.00 87.69    -0.062 C 
HETATM   36  C34 VFQ 51621     -39.271 136.511   9.652  1.00 87.69     0.007 C 
HETATM   37  C35 VFQ 51621     -40.166 137.422  10.349  1.00 87.69     0.001 C 
HETATM   38  C36 VFQ 51621     -34.352 127.401   8.229  1.00 94.67     0.020 C 
HETATM   39  C37 VFQ 51621     -35.237 128.391   6.114  1.00 94.67     0.020 C 
HETATM   40  C38 VFQ 51621     -31.588 131.214   7.201  1.00 94.67     0.044 C 
HETATM   41  C39 VFQ 51621     -35.094 131.836  10.735  1.00 87.69     0.048 C 
HETATM   42  C40 VFQ 51621     -39.089 135.050  11.638  1.00 87.69     0.048 C 
HETATM   43  O23 VFQ 51621     -31.078 127.022   4.851  1.00 94.67    -0.395 OA
ATOM     44  H23 VFQ 51621     -31.088 126.092   5.042  1.00  0.00     0.210 HD
ENDROOT
TORSDOF 12
