REMARK VINA RESULT:    -7.763      1.901     16.771
REMARK INTER + INTRA:         -10.722
REMARK INTER:                 -10.395
REMARK INTRA:                  -0.327
REMARK UNBOUND:                -2.960
REMARK  0 active torsions:
REMARK  status: ('A' for Active; 'I' for Inactive)
REMARK       I    between atoms: C3_3  and  O3_21 
REMARK       I    between atoms: C6_6  and  C7_7 
REMARK       I    between atoms: C8_8  and  C9_9 
REMARK       I    between atoms: C10_10  and  C11_11 
REMARK       I    between atoms: C12_12  and  C13_13 
REMARK       I    between atoms: C14_14  and  C15_15 
REMARK       I    between atoms: C23_25  and  O23_43 
REMARK       I    between atoms: C26_28  and  C27_29 
REMARK       I    between atoms: C28_30  and  C29_31 
REMARK       I    between atoms: C30_32  and  C31_33 
REMARK       I    between atoms: C32_34  and  C33_35 
REMARK       I    between atoms: C34_36  and  C35_37 
ROOT
HETATM    1  C1  VFQ Y1621     -34.147 128.210   6.933  1.00 26.19    -0.018 C 
HETATM    2  C2  VFQ Y1621     -33.315 127.512   5.865  1.00 26.65     0.045 C 
HETATM    3  C3  VFQ Y1621     -32.055 128.215   5.398  1.00 28.07     0.123 C 
HETATM    4  C4  VFQ Y1621     -31.336 128.883   6.541  1.00 30.07     0.066 C 
HETATM    5  C5  VFQ Y1621     -32.273 129.832   7.216  1.00 28.83    -0.074 C 
HETATM    6  C6  VFQ Y1621     -33.498 129.430   7.570  1.00 27.49    -0.048 C 
HETATM    7  C7  VFQ Y1621     -34.285 130.147   8.604  1.00 29.45     0.009 C 
HETATM    8  C8  VFQ Y1621     -34.861 131.330   8.377  1.00 27.83     0.007 C 
HETATM    9  C9  VFQ Y1621     -35.673 132.021   9.383  1.00 26.06    -0.062 C 
HETATM   10  C10 VFQ Y1621     -36.439 133.007   8.923  1.00 25.01     0.007 C 
HETATM   11  C11 VFQ Y1621     -37.357 133.782   9.729  1.00 25.09     0.001 C 
HETATM   12  C12 VFQ Y1621     -38.042 134.686   9.055  1.00 26.01     0.007 C 
HETATM   13  C13 VFQ Y1621     -39.075 135.524   9.665  1.00 26.36    -0.062 C 
HETATM   14  C14 VFQ Y1621     -39.765 136.336   8.861  1.00 27.67     0.007 C 
HETATM   15  C15 VFQ Y1621     -40.835 137.174   9.379  1.00 28.38     0.001 C 
HETATM   16  C16 VFQ Y1621     -34.423 127.143   7.977  1.00 26.46     0.020 C 
HETATM   17  C17 VFQ Y1621     -35.460 128.670   6.315  1.00 26.61     0.020 C 
HETATM   18  C18 VFQ Y1621     -31.422 130.713   8.070  1.00 29.43     0.044 C 
HETATM   19  C19 VFQ Y1621     -35.653 131.626  10.825  1.00 26.07     0.048 C 
HETATM   20  C20 VFQ Y1621     -39.376 135.418  11.128  1.00 25.83     0.048 C 
HETATM   21  O3  VFQ Y1621     -31.185 127.253   4.808  1.00 27.44    -0.395 OA
ATOM     22  H3  VFQ Y1621     -30.396 127.694   4.515  1.00  0.00     0.210 HD
HETATM   23  C21 VFQ Y1621     -50.648 145.485   9.681  1.00 19.07    -0.018 C 
HETATM   24  C22 VFQ Y1621     -51.668 146.135  10.635  1.00 18.69     0.045 C 
HETATM   25  C23 VFQ Y1621     -51.152 147.217  11.579  1.00 19.88     0.123 C 
HETATM   26  C24 VFQ Y1621     -49.729 146.957  12.102  1.00 19.59     0.066 C 
HETATM   27  C25 VFQ Y1621     -48.758 146.281  11.184  1.00 18.61    -0.074 C 
HETATM   28  C26 VFQ Y1621     -49.144 145.590  10.054  1.00 18.29    -0.048 C 
HETATM   29  C27 VFQ Y1621     -48.152 144.938   9.173  1.00 19.20     0.009 C 
HETATM   30  C28 VFQ Y1621     -47.497 143.766   9.372  1.00 18.47     0.007 C 
HETATM   31  C29 VFQ Y1621     -46.420 143.243   8.581  1.00 29.73    -0.062 C 
HETATM   32  C30 VFQ Y1621     -46.071 141.979   8.798  1.00 28.64     0.007 C 
HETATM   33  C31 VFQ Y1621     -45.005 141.301   8.090  1.00 27.79     0.001 C 
HETATM   34  C32 VFQ Y1621     -44.356 140.400   8.806  1.00 27.11     0.007 C 
HETATM   35  C33 VFQ Y1621     -43.254 139.610   8.259  1.00 25.78    -0.062 C 
HETATM   36  C34 VFQ Y1621     -42.603 138.755   9.050  1.00 26.10     0.007 C 
HETATM   37  C35 VFQ Y1621     -41.516 137.936   8.539  1.00 27.22     0.001 C 
HETATM   38  C36 VFQ Y1621     -50.883 146.057   8.269  1.00 17.04     0.020 C 
HETATM   39  C37 VFQ Y1621     -51.096 144.013   9.695  1.00 20.18     0.020 C 
HETATM   40  C38 VFQ Y1621     -47.399 146.520  11.728  1.00 19.93     0.044 C 
HETATM   41  C39 VFQ Y1621     -45.755 144.109   7.564  1.00 32.37     0.048 C 
HETATM   42  C40 VFQ Y1621     -42.892 139.774   6.827  1.00 25.14     0.048 C 
HETATM   43  O23 VFQ Y1621     -52.053 147.405  12.661  1.00 19.51    -0.395 OA
ATOM     44  H23 VFQ Y1621     -51.731 148.078  13.248  1.00  0.00     0.210 HD
ENDROOT
TORSDOF 12
