REMARK VINA RESULT:    -8.920      1.987      2.563
REMARK INTER + INTRA:         -12.127
REMARK INTER:                 -11.590
REMARK INTRA:                  -0.536
REMARK UNBOUND:                -3.207
REMARK  0 active torsions:
REMARK  status: ('A' for Active; 'I' for Inactive)
REMARK       I    between atoms: C3_3  and  O3_21 
REMARK       I    between atoms: C6_6  and  C7_7 
REMARK       I    between atoms: C8_8  and  C9_9 
REMARK       I    between atoms: C10_10  and  C11_11 
REMARK       I    between atoms: C12_12  and  C13_13 
REMARK       I    between atoms: C14_14  and  C15_15 
REMARK       I    between atoms: C23_25  and  O23_43 
REMARK       I    between atoms: C26_28  and  C27_29 
REMARK       I    between atoms: C28_30  and  C29_31 
REMARK       I    between atoms: C30_32  and  C31_33 
REMARK       I    between atoms: C32_34  and  C33_35 
REMARK       I    between atoms: C34_36  and  C35_37 
ROOT
HETATM    1  C1  VFQ B1621     -50.805 145.368   9.421  1.00 16.49    -0.018 C 
HETATM    2  C2  VFQ B1621     -51.900 145.933  10.346  1.00 14.93     0.045 C 
HETATM    3  C3  VFQ B1621     -51.524 146.901  11.464  1.00 15.86     0.123 C 
HETATM    4  C4  VFQ B1621     -50.180 147.630  11.266  1.00 14.41     0.066 C 
HETATM    5  C5  VFQ B1621     -49.128 147.053  10.359  1.00 15.44    -0.074 C 
HETATM    6  C6  VFQ B1621     -49.384 146.016   9.482  1.00 14.73    -0.048 C 
HETATM    7  C7  VFQ B1621     -48.385 145.452   8.541  1.00 14.04     0.009 C 
HETATM    8  C8  VFQ B1621     -47.442 144.537   8.864  1.00 12.72     0.007 C 
HETATM    9  C9  VFQ B1621     -46.384 143.966   8.026  1.00 12.70    -0.062 C 
HETATM   10  C10 VFQ B1621     -45.649 142.960   8.553  1.00 13.26     0.007 C 
HETATM   11  C11 VFQ B1621     -44.628 142.181   7.890  1.00 13.12     0.001 C 
HETATM   12  C12 VFQ B1621     -44.008 141.152   8.514  1.00 12.34     0.007 C 
HETATM   13  C13 VFQ B1621     -43.049 140.202   7.919  1.00 12.89    -0.062 C 
HETATM   14  C14 VFQ B1621     -42.553 139.218   8.705  1.00 12.03     0.007 C 
HETATM   15  C15 VFQ B1621     -41.645 138.160   8.313  1.00 13.59     0.001 C 
HETATM   16  C16 VFQ B1621     -51.444 145.574   8.023  1.00 14.27     0.020 C 
HETATM   17  C17 VFQ B1621     -50.702 143.849   9.709  1.00 12.26     0.020 C 
HETATM   18  C18 VFQ B1621     -47.840 147.799  10.482  1.00 13.78     0.044 C 
HETATM   19  C19 VFQ B1621     -46.241 144.483   6.625  1.00  8.79     0.048 C 
HETATM   20  C20 VFQ B1621     -42.713 140.376   6.457  1.00  8.63     0.048 C 
HETATM   21  O3  VFQ B1621     -52.572 147.835  11.676  1.00 14.46    -0.395 OA
ATOM     22  H3  VFQ B1621     -52.338 148.439  12.371  1.00  0.00     0.210 HD
HETATM   23  C21 VFQ B1621     -33.857 127.945   7.283  1.00 90.34    -0.018 C 
HETATM   24  C22 VFQ B1621     -32.874 127.179   6.405  1.00 90.34     0.045 C 
HETATM   25  C23 VFQ B1621     -31.698 127.945   5.821  1.00 90.34     0.123 C 
HETATM   26  C24 VFQ B1621     -32.060 129.388   5.533  1.00 90.34     0.066 C 
HETATM   27  C25 VFQ B1621     -32.559 129.996   6.812  1.00 90.34    -0.074 C 
HETATM   28  C26 VFQ B1621     -33.521 129.403   7.516  1.00 90.34    -0.048 C 
HETATM   29  C27 VFQ B1621     -34.283 130.132   8.559  1.00 90.34     0.009 C 
HETATM   30  C28 VFQ B1621     -35.293 130.943   8.234  1.00 90.34     0.007 C 
HETATM   31  C29 VFQ B1621     -36.133 131.693   9.204  1.00 21.33    -0.062 C 
HETATM   32  C30 VFQ B1621     -37.088 132.520   8.724  1.00 19.38     0.007 C 
HETATM   33  C31 VFQ B1621     -37.981 133.337   9.512  1.00 19.44     0.001 C 
HETATM   34  C32 VFQ B1621     -38.761 134.286   8.927  1.00 17.56     0.007 C 
HETATM   35  C33 VFQ B1621     -39.675 135.252   9.556  1.00 14.52    -0.062 C 
HETATM   36  C34 VFQ B1621     -40.264 136.175   8.763  1.00 13.82     0.007 C 
HETATM   37  C35 VFQ B1621     -41.162 137.243   9.172  1.00 15.60     0.001 C 
HETATM   38  C36 VFQ B1621     -33.876 127.289   8.650  1.00 90.34     0.020 C 
HETATM   39  C37 VFQ B1621     -35.229 127.792   6.639  1.00 90.34     0.020 C 
HETATM   40  C38 VFQ B1621     -31.914 131.266   7.266  1.00 90.34     0.044 C 
HETATM   41  C39 VFQ B1621     -35.815 131.551  10.658  1.00 21.43     0.048 C 
HETATM   42  C40 VFQ B1621     -39.837 135.190  11.040  1.00 13.28     0.048 C 
HETATM   43  O23 VFQ B1621     -31.329 127.322   4.592  1.00 90.34    -0.395 OA
ATOM     44  H23 VFQ B1621     -31.102 126.417   4.773  1.00  0.00     0.210 HD
ENDROOT
TORSDOF 12
