REMARK VINA RESULT:   -11.367      0.000      0.000
REMARK INTER + INTRA:         -14.038
REMARK INTER:                 -11.367
REMARK INTRA:                  -2.671
REMARK UNBOUND:                -2.671
REMARK  0 active torsions:
REMARK  status: ('A' for Active; 'I' for Inactive)
REMARK       I    between atoms: C3_3  and  O3_21 
REMARK       I    between atoms: C6_6  and  C7_7 
REMARK       I    between atoms: C8_8  and  C9_9 
REMARK       I    between atoms: C10_10  and  C11_11 
REMARK       I    between atoms: C12_12  and  C13_13 
REMARK       I    between atoms: C14_14  and  C15_15 
REMARK       I    between atoms: C23_25  and  O23_43 
REMARK       I    between atoms: C26_28  and  C27_29 
REMARK       I    between atoms: C28_30  and  C29_31 
REMARK       I    between atoms: C30_32  and  C31_33 
REMARK       I    between atoms: C32_34  and  C33_35 
REMARK       I    between atoms: C34_36  and  C35_37 
ROOT
HETATM    1  C1  VFQ 71621     -34.424 127.008   6.368  1.00 71.39    -0.018 C 
HETATM    2  C2  VFQ 71621     -34.105 126.525   4.959  1.00 71.39     0.045 C 
HETATM    3  C3  VFQ 71621     -32.940 127.178   4.225  1.00 71.39     0.123 C 
HETATM    4  C4  VFQ 71621     -31.880 127.665   5.189  1.00 71.39     0.066 C 
HETATM    5  C5  VFQ 71621     -32.557 128.598   6.147  1.00 71.39    -0.074 C 
HETATM    6  C6  VFQ 71621     -33.665 128.244   6.795  1.00 71.39    -0.048 C 
HETATM    7  C7  VFQ 71621     -34.194 129.027   7.944  1.00 71.39     0.009 C 
HETATM    8  C8  VFQ 71621     -34.951 130.111   7.761  1.00 71.39     0.007 C 
HETATM    9  C9  VFQ 71621     -35.536 130.922   8.843  1.00 71.39    -0.062 C 
HETATM   10  C10 VFQ 71621     -36.425 131.847   8.472  1.00 71.39     0.007 C 
HETATM   11  C11 VFQ 71621     -37.164 132.755   9.343  1.00 71.39     0.001 C 
HETATM   12  C12 VFQ 71621     -38.024 133.545   8.701  1.00 71.39     0.007 C 
HETATM   13  C13 VFQ 71621     -38.914 134.526   9.342  1.00 71.39    -0.062 C 
HETATM   14  C14 VFQ 71621     -39.747 135.222   8.559  1.00 71.39     0.007 C 
HETATM   15  C15 VFQ 71621     -40.695 136.182   9.109  1.00 71.39     0.001 C 
HETATM   16  C16 VFQ 71621     -34.181 125.854   7.333  1.00 71.39     0.020 C 
HETATM   17  C17 VFQ 71621     -35.899 127.351   6.421  1.00 71.39     0.020 C 
HETATM   18  C18 VFQ 71621     -31.603 129.606   6.687  1.00 71.39     0.044 C 
HETATM   19  C19 VFQ 71621     -35.178 130.717  10.281  1.00 71.39     0.048 C 
HETATM   20  C20 VFQ 71621     -38.908 134.721  10.824  1.00 71.39     0.048 C 
HETATM   21  O3  VFQ 71621     -32.334 126.211   3.360  1.00 71.39    -0.395 OA
ATOM     22  H3  VFQ 71621     -32.999 125.905   2.756  1.00  0.00     0.210 HD
HETATM   23  C21 VFQ 71621     -50.337 144.203  10.672  1.00 72.69    -0.018 C 
HETATM   24  C22 VFQ 71621     -51.268 145.111  11.476  1.00 72.50     0.045 C 
HETATM   25  C23 VFQ 71621     -50.634 146.165  12.379  1.00 72.53     0.123 C 
HETATM   26  C24 VFQ 71621     -49.261 145.748  12.879  1.00 73.67     0.066 C 
HETATM   27  C25 VFQ 71621     -48.396 145.364  11.710  1.00 74.71    -0.074 C 
HETATM   28  C26 VFQ 71621     -48.871 144.573  10.750  1.00 74.26    -0.048 C 
HETATM   29  C27 VFQ 71621     -47.962 144.001   9.733  1.00 75.37     0.009 C 
HETATM   30  C28 VFQ 71621     -47.268 142.898  10.016  1.00 77.10     0.007 C 
HETATM   31  C29 VFQ 71621     -46.362 142.272   9.046  1.00 71.39    -0.062 C 
HETATM   32  C30 VFQ 71621     -45.936 141.035   9.318  1.00 71.39     0.007 C 
HETATM   33  C31 VFQ 71621     -45.040 140.277   8.454  1.00 71.39     0.001 C 
HETATM   34  C32 VFQ 71621     -44.196 139.447   9.050  1.00 71.39     0.007 C 
HETATM   35  C33 VFQ 71621     -43.246 138.617   8.302  1.00 71.39    -0.062 C 
HETATM   36  C34 VFQ 71621     -42.404 137.830   8.974  1.00 71.39     0.007 C 
HETATM   37  C35 VFQ 71621     -41.448 136.946   8.321  1.00 71.39     0.001 C 
HETATM   38  C36 VFQ 71621     -50.742 144.268   9.205  1.00 72.40     0.020 C 
HETATM   39  C37 VFQ 71621     -50.511 142.777  11.176  1.00 73.92     0.020 C 
HETATM   40  C38 VFQ 71621     -46.990 145.889  11.651  1.00 74.98     0.044 C 
HETATM   41  C39 VFQ 71621     -45.943 142.999   7.808  1.00 71.39     0.048 C 
HETATM   42  C40 VFQ 71621     -43.248 138.684   6.816  1.00 71.39     0.048 C 
HETATM   43  O23 VFQ 71621     -51.489 146.361  13.512  1.00 71.08    -0.395 OA
ATOM     44  H23 VFQ 71621     -51.094 147.017  14.074  1.00  0.00     0.210 HD
ENDROOT
TORSDOF 12
