REMARK VINA RESULT:    -7.563      1.200     16.810
REMARK INTER + INTRA:         -10.655
REMARK INTER:                  -7.354
REMARK INTRA:                  -3.301
REMARK UNBOUND:                -3.092
REMARK  0 active torsions:
REMARK  status: ('A' for Active; 'I' for Inactive)
REMARK       I    between atoms: C3_3  and  O3_21 
REMARK       I    between atoms: C6_6  and  C7_7 
REMARK       I    between atoms: C8_8  and  C9_9 
REMARK       I    between atoms: C10_10  and  C11_11 
REMARK       I    between atoms: C12_12  and  C13_13 
REMARK       I    between atoms: C14_14  and  C15_15 
REMARK       I    between atoms: C23_25  and  O23_43 
REMARK       I    between atoms: C26_28  and  C27_29 
REMARK       I    between atoms: C28_30  and  C29_31 
REMARK       I    between atoms: C30_32  and  C31_33 
REMARK       I    between atoms: C32_34  and  C33_35 
REMARK       I    between atoms: C34_36  and  C35_37 
ROOT
HETATM    1  C1  VFQ 3 621     -34.388 126.883   6.106  1.00 19.54    -0.018 C 
HETATM    2  C2  VFQ 3 621     -33.758 126.107   4.953  1.00 19.54     0.045 C 
HETATM    3  C3  VFQ 3 621     -32.788 126.826   4.037  1.00 19.54     0.123 C 
HETATM    4  C4  VFQ 3 621     -31.825 127.645   4.860  1.00 19.54     0.066 C 
HETATM    5  C5  VFQ 3 621     -32.562 128.553   5.811  1.00 19.54    -0.074 C 
HETATM    6  C6  VFQ 3 621     -33.670 128.170   6.470  1.00 19.54    -0.048 C 
HETATM    7  C7  VFQ 3 621     -34.194 128.977   7.613  1.00 19.54     0.009 C 
HETATM    8  C8  VFQ 3 621     -35.015 130.025   7.469  1.00 19.54     0.007 C 
HETATM    9  C9  VFQ 3 621     -35.541 130.825   8.593  1.00 19.54    -0.062 C 
HETATM   10  C10 VFQ 3 621     -36.369 131.836   8.289  1.00 19.54     0.007 C 
HETATM   11  C11 VFQ 3 621     -36.997 132.740   9.248  1.00 19.54     0.001 C 
HETATM   12  C12 VFQ 3 621     -37.717 133.720   8.710  1.00 19.54     0.007 C 
HETATM   13  C13 VFQ 3 621     -38.456 134.730   9.486  1.00 19.54    -0.062 C 
HETATM   14  C14 VFQ 3 621     -39.453 135.370   8.858  1.00 19.54     0.007 C 
HETATM   15  C15 VFQ 3 621     -40.291 136.374   9.501  1.00 19.54     0.001 C 
HETATM   16  C16 VFQ 3 621     -34.452 125.906   7.275  1.00 19.54     0.020 C 
HETATM   17  C17 VFQ 3 621     -35.808 127.271   5.723  1.00 19.54     0.020 C 
HETATM   18  C18 VFQ 3 621     -31.696 129.667   6.310  1.00 19.54     0.044 C 
HETATM   19  C19 VFQ 3 621     -35.151 130.529  10.009  1.00 19.54     0.048 C 
HETATM   20  C20 VFQ 3 621     -38.108 135.032  10.913  1.00 19.54     0.048 C 
HETATM   21  O3  VFQ 3 621     -32.036 125.850   3.311  1.00 19.54    -0.395 OA
ATOM     22  H3  VFQ 3 621     -31.428 126.301   2.737  1.00  0.00     0.210 HD
HETATM   23  C21 VFQ 3 621     -49.746 143.895  12.399  1.00 98.50    -0.018 C 
HETATM   24  C22 VFQ 3 621     -50.176 144.498  13.720  1.00 95.05     0.045 C 
HETATM   25  C23 VFQ 3 621     -50.135 146.008  13.689  1.00 91.19     0.123 C 
HETATM   26  C24 VFQ 3 621     -48.735 146.502  13.386  1.00 95.39     0.066 C 
HETATM   27  C25 VFQ 3 621     -47.956 145.634  12.434  1.00 94.24    -0.074 C 
HETATM   28  C26 VFQ 3 621     -48.451 144.507  11.876  1.00 98.17    -0.048 C 
HETATM   29  C27 VFQ 3 621     -47.793 143.843  10.712  1.00 96.30     0.009 C 
HETATM   30  C28 VFQ 3 621     -46.788 142.970  10.837  1.00 99.74     0.007 C 
HETATM   31  C29 VFQ 3 621     -46.146 142.285   9.724  1.00 19.54    -0.062 C 
HETATM   32  C30 VFQ 3 621     -45.525 141.131   9.977  1.00 19.54     0.007 C 
HETATM   33  C31 VFQ 3 621     -44.843 140.325   8.974  1.00 19.54     0.001 C 
HETATM   34  C32 VFQ 3 621     -43.964 139.468   9.474  1.00 19.54     0.007 C 
HETATM   35  C33 VFQ 3 621     -43.139 138.521   8.713  1.00 19.54    -0.062 C 
HETATM   36  C34 VFQ 3 621     -42.189 137.872   9.401  1.00 19.54     0.007 C 
HETATM   37  C35 VFQ 3 621     -41.301 136.886   8.801  1.00 19.54     0.001 C 
HETATM   38  C36 VFQ 3 621     -50.802 144.149  11.341  1.00 90.00     0.020 C 
HETATM   39  C37 VFQ 3 621     -49.702 142.393  12.641  1.00 93.85     0.020 C 
HETATM   40  C38 VFQ 3 621     -46.568 146.135  12.196  1.00 91.76     0.044 C 
HETATM   41  C39 VFQ 3 621     -46.179 142.852   8.345  1.00 19.54     0.048 C 
HETATM   42  C40 VFQ 3 621     -43.360 138.299   7.249  1.00 19.54     0.048 C 
HETATM   43  O23 VFQ 3 621     -50.508 146.508  14.973  1.00 92.07    -0.395 OA
ATOM     44  H23 VFQ 3 621     -50.482 147.457  14.953  1.00  0.00     0.210 HD
ENDROOT
TORSDOF 12
