REMARK VINA RESULT:   -10.423      2.004      2.479
REMARK INTER + INTRA:         -10.890
REMARK INTER:                  -7.883
REMARK INTRA:                  -3.007
REMARK UNBOUND:                -0.467
REMARK  0 active torsions:
REMARK  status: ('A' for Active; 'I' for Inactive)
REMARK       I    between atoms: C3_3  and  O3_21 
REMARK       I    between atoms: C6_6  and  C7_7 
REMARK       I    between atoms: C8_8  and  C9_9 
REMARK       I    between atoms: C10_10  and  C11_11 
REMARK       I    between atoms: C12_12  and  C13_13 
REMARK       I    between atoms: C14_14  and  C15_15 
REMARK       I    between atoms: C23_25  and  O23_43 
REMARK       I    between atoms: C26_28  and  C27_29 
REMARK       I    between atoms: C28_30  and  C29_31 
REMARK       I    between atoms: C30_32  and  C31_33 
REMARK       I    between atoms: C32_34  and  C33_35 
REMARK       I    between atoms: C34_36  and  C35_37 
ROOT
HETATM    1  C1  VFQ 51621     -34.678 127.826   5.938  1.00 87.69    -0.018 C 
HETATM    2  C2  VFQ 51621     -34.114 127.564   4.554  1.00 87.69     0.045 C 
HETATM    3  C3  VFQ 51621     -32.604 127.373   4.456  1.00 87.69     0.123 C 
HETATM    4  C4  VFQ 51621     -31.787 128.109   5.509  1.00 87.69     0.066 C 
HETATM    5  C5  VFQ 51621     -32.595 129.090   6.319  1.00 87.69    -0.074 C 
HETATM    6  C6  VFQ 51621     -33.840 128.817   6.700  1.00 87.69    -0.048 C 
HETATM    7  C7  VFQ 51621     -34.424 129.449   7.905  1.00 87.69     0.009 C 
HETATM    8  C8  VFQ 51621     -34.939 130.672   7.853  1.00 87.69     0.007 C 
HETATM    9  C9  VFQ 51621     -35.546 131.326   9.022  1.00 87.69    -0.062 C 
HETATM   10  C10 VFQ 51621     -36.305 132.390   8.782  1.00 87.69     0.007 C 
HETATM   11  C11 VFQ 51621     -37.018 133.178   9.777  1.00 87.69     0.001 C 
HETATM   12  C12 VFQ 51621     -37.505 134.333   9.340  1.00 87.69     0.007 C 
HETATM   13  C13 VFQ 51621     -38.293 135.239  10.188  1.00 87.69    -0.062 C 
HETATM   14  C14 VFQ 51621     -38.830 136.321   9.618  1.00 87.69     0.007 C 
HETATM   15  C15 VFQ 51621     -39.667 137.238  10.372  1.00 87.69     0.001 C 
HETATM   16  C16 VFQ 51621     -34.842 126.523   6.713  1.00 87.69     0.020 C 
HETATM   17  C17 VFQ 51621     -36.048 128.441   5.751  1.00 87.69     0.020 C 
HETATM   18  C18 VFQ 51621     -31.581 129.605   7.292  1.00 87.69     0.044 C 
HETATM   19  C19 VFQ 51621     -35.315 130.820  10.409  1.00 87.69     0.048 C 
HETATM   20  C20 VFQ 51621     -38.515 134.942  11.638  1.00 87.69     0.048 C 
HETATM   21  O3  VFQ 51621     -32.347 125.977   4.593  1.00 87.69    -0.395 OA
ATOM     22  H3  VFQ 51621     -31.406 125.857   4.532  1.00  0.00     0.210 HD
HETATM   23  C21 VFQ 51621     -47.940 146.392  12.899  1.00 94.67    -0.018 C 
HETATM   24  C22 VFQ 51621     -48.882 147.226  13.757  1.00 94.67     0.045 C 
HETATM   25  C23 VFQ 51621     -48.245 148.060  14.847  1.00 94.67     0.123 C 
HETATM   26  C24 VFQ 51621     -47.208 147.230  15.556  1.00 94.67     0.066 C 
HETATM   27  C25 VFQ 51621     -46.156 146.798  14.583  1.00 94.67    -0.074 C 
HETATM   28  C26 VFQ 51621     -46.493 146.397  13.355  1.00 94.67    -0.048 C 
HETATM   29  C27 VFQ 51621     -45.457 145.956  12.390  1.00 94.67     0.009 C 
HETATM   30  C28 VFQ 51621     -45.058 144.687  12.340  1.00 94.67     0.007 C 
HETATM   31  C29 VFQ 51621     -44.058 144.211  11.392  1.00 87.69    -0.062 C 
HETATM   32  C30 VFQ 51621     -43.932 142.893  11.271  1.00 87.69     0.007 C 
HETATM   33  C31 VFQ 51621     -43.009 142.241  10.363  1.00 87.69     0.001 C 
HETATM   34  C32 VFQ 51621     -42.459 141.125  10.813  1.00 87.69     0.007 C 
HETATM   35  C33 VFQ 51621     -41.533 140.326  10.008  1.00 87.69    -0.062 C 
HETATM   36  C34 VFQ 51621     -41.071 139.178  10.512  1.00 87.69     0.007 C 
HETATM   37  C35 VFQ 51621     -40.187 138.296   9.764  1.00 87.69     0.001 C 
HETATM   38  C36 VFQ 51621     -47.968 146.968  11.491  1.00 94.67     0.020 C 
HETATM   39  C37 VFQ 51621     -48.512 144.978  12.898  1.00 94.67     0.020 C 
HETATM   40  C38 VFQ 51621     -44.738 146.852  15.067  1.00 94.67     0.044 C 
HETATM   41  C39 VFQ 51621     -43.232 145.161  10.591  1.00 87.69     0.048 C 
HETATM   42  C40 VFQ 51621     -41.151 140.801   8.649  1.00 87.69     0.048 C 
HETATM   43  O23 VFQ 51621     -49.251 148.418  15.795  1.00 94.67    -0.395 OA
ATOM     44  H23 VFQ 51621     -49.905 148.942  15.347  1.00  0.00     0.210 HD
ENDROOT
TORSDOF 12
