REMARK VINA RESULT:    -9.000      1.841     16.739
REMARK INTER + INTRA:          -9.302
REMARK INTER:                  -7.223
REMARK INTRA:                  -2.079
REMARK UNBOUND:                -0.302
REMARK  0 active torsions:
REMARK  status: ('A' for Active; 'I' for Inactive)
REMARK       I    between atoms: C3_3  and  O3_21 
REMARK       I    between atoms: C6_6  and  C7_7 
REMARK       I    between atoms: C8_8  and  C9_9 
REMARK       I    between atoms: C10_10  and  C11_11 
REMARK       I    between atoms: C12_12  and  C13_13 
REMARK       I    between atoms: C14_14  and  C15_15 
REMARK       I    between atoms: C23_25  and  O23_43 
REMARK       I    between atoms: C26_28  and  C27_29 
REMARK       I    between atoms: C28_30  and  C29_31 
REMARK       I    between atoms: C30_32  and  C31_33 
REMARK       I    between atoms: C32_34  and  C33_35 
REMARK       I    between atoms: C34_36  and  C35_37 
ROOT
HETATM    1  C1  VFQ g1620     -51.002 142.488  12.988  1.00 66.61    -0.018 C 
HETATM    2  C2  VFQ g1620     -51.157 143.309  14.263  1.00 66.61     0.045 C 
HETATM    3  C3  VFQ g1620     -50.511 144.685  14.315  1.00 66.61     0.123 C 
HETATM    4  C4  VFQ g1620     -50.496 145.344  12.952  1.00 66.61     0.066 C 
HETATM    5  C5  VFQ g1620     -49.823 144.429  11.970  1.00 66.61    -0.074 C 
HETATM    6  C6  VFQ g1620     -50.117 143.125  11.933  1.00 66.61    -0.048 C 
HETATM    7  C7  VFQ g1620     -49.592 142.266  10.841  1.00 66.61     0.009 C 
HETATM    8  C8  VFQ g1620     -48.395 141.682  10.924  1.00 66.61     0.007 C 
HETATM    9  C9  VFQ g1620     -47.860 140.818   9.863  1.00 66.61    -0.062 C 
HETATM   10  C10 VFQ g1620     -46.616 140.357  10.018  1.00 66.61     0.007 C 
HETATM   11  C11 VFQ g1620     -45.968 139.482   9.055  1.00 66.61     0.001 C 
HETATM   12  C12 VFQ g1620     -44.824 138.946   9.459  1.00 66.61     0.007 C 
HETATM   13  C13 VFQ g1620     -44.031 138.023   8.637  1.00 66.61    -0.062 C 
HETATM   14  C14 VFQ g1620     -42.966 137.452   9.206  1.00 66.61     0.007 C 
HETATM   15  C15 VFQ g1620     -42.122 136.504   8.498  1.00 66.61     0.001 C 
HETATM   16  C16 VFQ g1620     -52.400 142.227  12.439  1.00 66.61     0.020 C 
HETATM   17  C17 VFQ g1620     -50.381 141.156  13.375  1.00 66.61     0.020 C 
HETATM   18  C18 VFQ g1620     -49.109 145.129  10.851  1.00 66.61     0.044 C 
HETATM   19  C19 VFQ g1620     -48.690 140.464   8.666  1.00 66.61     0.048 C 
HETATM   20  C20 VFQ g1620     -44.411 137.728   7.218  1.00 66.61     0.048 C 
HETATM   21  O3  VFQ g1620     -51.267 145.506  15.209  1.00 66.61    -0.395 OA
ATOM     22  H3  VFQ g1620     -51.276 145.092  16.064  1.00  0.00     0.210 HD
HETATM   23  C21 VFQ g1620     -34.161 127.154   7.056  1.00 70.34    -0.018 C 
HETATM   24  C22 VFQ g1620     -33.301 126.002   6.580  1.00 70.34     0.045 C 
HETATM   25  C23 VFQ g1620     -32.417 126.271   5.373  1.00 70.34     0.123 C 
HETATM   26  C24 VFQ g1620     -31.703 127.607   5.453  1.00 70.34     0.066 C 
HETATM   27  C25 VFQ g1620     -32.389 128.697   6.224  1.00 70.34    -0.074 C 
HETATM   28  C26 VFQ g1620     -33.447 128.487   7.010  1.00 70.34    -0.048 C 
HETATM   29  C27 VFQ g1620     -33.943 129.555   7.911  1.00 70.34     0.009 C 
HETATM   30  C28 VFQ g1620     -34.916 130.391   7.569  1.00 70.34     0.007 C 
HETATM   31  C29 VFQ g1620     -35.412 131.425   8.481  1.00 66.61    -0.062 C 
HETATM   32  C30 VFQ g1620     -36.612 131.942   8.204  1.00 66.61     0.007 C 
HETATM   33  C31 VFQ g1620     -37.276 132.961   9.004  1.00 66.61     0.001 C 
HETATM   34  C32 VFQ g1620     -38.409 133.434   8.504  1.00 66.61     0.007 C 
HETATM   35  C33 VFQ g1620     -39.222 134.447   9.187  1.00 66.61    -0.062 C 
HETATM   36  C34 VFQ g1620     -40.318 134.895   8.566  1.00 66.61     0.007 C 
HETATM   37  C35 VFQ g1620     -41.183 135.880   9.198  1.00 66.61     0.001 C 
HETATM   38  C36 VFQ g1620     -34.505 126.863   8.510  1.00 70.34     0.020 C 
HETATM   39  C37 VFQ g1620     -35.442 127.183   6.233  1.00 70.34     0.020 C 
HETATM   40  C38 VFQ g1620     -31.775 130.057   6.060  1.00 70.34     0.044 C 
HETATM   41  C39 VFQ g1620     -34.610 131.870   9.667  1.00 66.61     0.048 C 
HETATM   42  C40 VFQ g1620     -38.828 134.940  10.548  1.00 66.61     0.048 C 
HETATM   43  O23 VFQ g1620     -33.156 126.179   4.154  1.00 70.34    -0.395 OA
ATOM     44  H23 VFQ g1620     -32.603 126.346   3.399  1.00  0.00     0.210 HD
ENDROOT
TORSDOF 12
