REMARK VINA RESULT:    -7.362      1.842      3.327
REMARK INTER + INTRA:          -9.008
REMARK INTER:                  -5.493
REMARK INTRA:                  -3.515
REMARK UNBOUND:                -1.645
REMARK  0 active torsions:
REMARK  status: ('A' for Active; 'I' for Inactive)
REMARK       I    between atoms: C3_3  and  O3_21 
REMARK       I    between atoms: C6_6  and  C7_7 
REMARK       I    between atoms: C8_8  and  C9_9 
REMARK       I    between atoms: C10_10  and  C11_11 
REMARK       I    between atoms: C12_12  and  C13_13 
REMARK       I    between atoms: C14_14  and  C15_15 
REMARK       I    between atoms: C23_25  and  O23_43 
REMARK       I    between atoms: C26_28  and  C27_29 
REMARK       I    between atoms: C28_30  and  C29_31 
REMARK       I    between atoms: C30_32  and  C31_33 
REMARK       I    between atoms: C32_34  and  C33_35 
REMARK       I    between atoms: C34_36  and  C35_37 
ROOT
HETATM    1  C1  VFQ 6 321     -49.015 149.537   8.308  1.00 93.31    -0.018 C 
HETATM    2  C2  VFQ 6 321     -50.420 150.139   8.262  1.00 93.93     0.045 C 
HETATM    3  C3  VFQ 6 321     -51.430 149.540   9.232  1.00 93.98     0.123 C 
HETATM    4  C4  VFQ 6 321     -50.826 149.467  10.622  1.00 93.16     0.066 C 
HETATM    5  C5  VFQ 6 321     -49.570 148.638  10.580  1.00 92.19    -0.074 C 
HETATM    6  C6  VFQ 6 321     -48.718 148.718   9.551  1.00 91.50    -0.048 C 
HETATM    7  C7  VFQ 6 321     -47.425 147.997   9.621  1.00 98.60     0.009 C 
HETATM    8  C8  VFQ 6 321     -47.320 146.703   9.312  1.00 95.09     0.007 C 
HETATM    9  C9  VFQ 6 321     -46.019 146.005   9.389  1.00 91.76    -0.062 C 
HETATM   10  C10 VFQ 6 321     -45.982 144.672   9.261  1.00 98.95     0.007 C 
HETATM   11  C11 VFQ 6 321     -44.725 143.929   9.326  1.00 96.41     0.001 C 
HETATM   12  C12 VFQ 6 321     -44.755 142.605   9.200  1.00 94.60     0.007 C 
HETATM   13  C13 VFQ 6 321     -43.518 141.805   9.255  1.00 93.62    -0.062 C 
HETATM   14  C14 VFQ 6 321     -43.574 140.474   9.086  1.00 93.18     0.007 C 
HETATM   15  C15 VFQ 6 321     -42.350 139.677   9.134  1.00 93.10     0.001 C 
HETATM   16  C16 VFQ 6 321     -48.003 150.672   8.207  1.00 93.81     0.020 C 
HETATM   17  C17 VFQ 6 321     -48.850 148.614   7.105  1.00 92.50     0.020 C 
HETATM   18  C18 VFQ 6 321     -49.176 147.943  11.851  1.00 91.81     0.044 C 
HETATM   19  C19 VFQ 6 321     -44.753 146.781   9.608  1.00 91.57     0.048 C 
HETATM   20  C20 VFQ 6 321     -42.201 142.481   9.495  1.00 93.41     0.048 C 
HETATM   21  O3  VFQ 6 321     -52.600 150.366   9.271  1.00 94.06    -0.395 OA
ATOM     22  H3  VFQ 6 321     -53.230 149.992   9.877  1.00  0.00     0.210 HD
HETATM   23  C21 VFQ 6 321     -33.592 130.794   7.306  1.00 57.46    -0.018 C 
HETATM   24  C22 VFQ 6 321     -32.295 130.014   7.462  1.00 54.62     0.045 C 
HETATM   25  C23 VFQ 6 321     -31.548 130.104   8.793  1.00 54.91     0.123 C 
HETATM   26  C24 VFQ 6 321     -32.319 130.730   9.948  1.00 56.99     0.066 C 
HETATM   27  C25 VFQ 6 321     -33.803 130.577   9.768  1.00 60.65    -0.074 C 
HETATM   28  C26 VFQ 6 321     -34.384 130.830   8.593  1.00 60.28    -0.048 C 
HETATM   29  C27 VFQ 6 321     -35.832 131.117   8.491  1.00 57.11     0.009 C 
HETATM   30  C28 VFQ 6 321     -36.326 132.320   8.755  1.00 53.31     0.007 C 
HETATM   31  C29 VFQ 6 321     -37.773 132.611   8.614  1.00 92.38    -0.062 C 
HETATM   32  C30 VFQ 6 321     -38.166 133.868   8.875  1.00 92.82     0.007 C 
HETATM   33  C31 VFQ 6 321     -39.549 134.329   8.783  1.00 93.26     0.001 C 
HETATM   34  C32 VFQ 6 321     -39.749 135.627   8.996  1.00 94.43     0.007 C 
HETATM   35  C33 VFQ 6 321     -41.076 136.272   8.936  1.00 94.12    -0.062 C 
HETATM   36  C34 VFQ 6 321     -41.133 137.608   9.056  1.00 93.68     0.007 C 
HETATM   37  C35 VFQ 6 321     -42.388 138.351   9.006  1.00 93.36     0.001 C 
HETATM   38  C36 VFQ 6 321     -34.437 130.087   6.261  1.00 59.48     0.020 C 
HETATM   39  C37 VFQ 6 321     -33.309 132.201   6.781  1.00 57.14     0.020 C 
HETATM   40  C38 VFQ 6 321     -34.607 130.122  10.945  1.00 65.36     0.044 C 
HETATM   41  C39 VFQ 6 321     -38.756 131.556   8.201  1.00 91.58     0.048 C 
HETATM   42  C40 VFQ 6 321     -42.320 135.455   8.745  1.00 93.59     0.048 C 
HETATM   43  O23 VFQ 6 321     -30.371 130.879   8.567  1.00 51.54    -0.395 OA
ATOM     44  H23 VFQ 6 321     -29.906 130.936   9.393  1.00  0.00     0.210 HD
ENDROOT
TORSDOF 12
