REMARK VINA RESULT:   -10.197      0.000      0.000
REMARK INTER + INTRA:         -12.373
REMARK INTER:                 -10.197
REMARK INTRA:                  -2.176
REMARK UNBOUND:                -2.176
REMARK  0 active torsions:
REMARK  status: ('A' for Active; 'I' for Inactive)
REMARK       I    between atoms: C3_3  and  O3_21 
REMARK       I    between atoms: C6_6  and  C7_7 
REMARK       I    between atoms: C8_8  and  C9_9 
REMARK       I    between atoms: C10_10  and  C11_11 
REMARK       I    between atoms: C12_12  and  C13_13 
REMARK       I    between atoms: C14_14  and  C15_15 
REMARK       I    between atoms: C23_25  and  O23_43 
REMARK       I    between atoms: C26_28  and  C27_29 
REMARK       I    between atoms: C28_30  and  C29_31 
REMARK       I    between atoms: C30_32  and  C31_33 
REMARK       I    between atoms: C32_34  and  C33_35 
REMARK       I    between atoms: C34_36  and  C35_37 
ROOT
HETATM    1  C1  VFQ B1620     -49.131 144.392  12.246  1.00 19.90    -0.018 C 
HETATM    2  C2  VFQ B1620     -49.747 145.142  13.444  1.00 19.41     0.045 C 
HETATM    3  C3  VFQ B1620     -48.897 146.181  14.178  1.00 19.05     0.123 C 
HETATM    4  C4  VFQ B1620     -47.928 146.916  13.267  1.00 17.84     0.066 C 
HETATM    5  C5  VFQ B1620     -47.280 146.154  12.160  1.00 19.18    -0.074 C 
HETATM    6  C6  VFQ B1620     -47.810 144.980  11.662  1.00 19.92    -0.048 C 
HETATM    7  C7  VFQ B1620     -47.144 144.254  10.563  1.00 19.37     0.009 C 
HETATM    8  C8  VFQ B1620     -46.049 143.479  10.671  1.00 19.11     0.007 C 
HETATM    9  C9  VFQ B1620     -45.299 142.851   9.589  1.00 19.13    -0.062 C 
HETATM   10  C10 VFQ B1620     -44.292 142.017   9.929  1.00 19.42     0.007 C 
HETATM   11  C11 VFQ B1620     -43.445 141.265   9.030  1.00 18.74     0.001 C 
HETATM   12  C12 VFQ B1620     -42.604 140.323   9.498  1.00 16.12     0.007 C 
HETATM   13  C13 VFQ B1620     -41.738 139.431   8.718  1.00 17.85    -0.062 C 
HETATM   14  C14 VFQ B1620     -41.062 138.480   9.398  1.00 17.76     0.007 C 
HETATM   15  C15 VFQ B1620     -40.231 137.437   8.868  1.00 19.16     0.001 C 
HETATM   16  C16 VFQ B1620     -50.253 144.441  11.194  1.00 18.85     0.020 C 
HETATM   17  C17 VFQ B1620     -48.922 142.921  12.649  1.00 18.57     0.020 C 
HETATM   18  C18 VFQ B1620     -46.051 146.892  11.752  1.00 19.26     0.044 C 
HETATM   19  C19 VFQ B1620     -45.742 143.128   8.175  1.00 17.89     0.048 C 
HETATM   20  C20 VFQ B1620     -41.722 139.581   7.215  1.00 13.12     0.048 C 
HETATM   21  O3  VFQ B1620     -49.726 147.111  14.860  1.00 18.20    -0.395 OA
ATOM     22  H3  VFQ B1620     -49.198 147.755  15.316  1.00  0.00     0.210 HD
HETATM   23  C21 VFQ B1620     -34.133 126.725   6.749  1.00 45.52    -0.018 C 
HETATM   24  C22 VFQ B1620     -33.353 125.850   5.771  1.00 45.52     0.045 C 
HETATM   25  C23 VFQ B1620     -32.376 126.619   4.890  1.00 45.52     0.123 C 
HETATM   26  C24 VFQ B1620     -32.929 128.003   4.605  1.00 45.52     0.066 C 
HETATM   27  C25 VFQ B1620     -32.976 128.726   5.919  1.00 45.52    -0.074 C 
HETATM   28  C26 VFQ B1620     -33.496 128.073   6.967  1.00 45.52    -0.048 C 
HETATM   29  C27 VFQ B1620     -33.733 128.759   8.239  1.00 45.52     0.009 C 
HETATM   30  C28 VFQ B1620     -34.566 129.781   8.028  1.00 45.52     0.007 C 
HETATM   31  C29 VFQ B1620     -35.161 130.617   9.122  1.00 26.15    -0.062 C 
HETATM   32  C30 VFQ B1620     -35.987 131.620   8.753  1.00 25.30     0.007 C 
HETATM   33  C31 VFQ B1620     -36.695 132.518   9.627  1.00 24.49     0.001 C 
HETATM   34  C32 VFQ B1620     -37.455 133.521   9.164  1.00 22.91     0.007 C 
HETATM   35  C33 VFQ B1620     -38.217 134.527   9.920  1.00 24.18    -0.062 C 
HETATM   36  C34 VFQ B1620     -38.874 135.472   9.213  1.00 22.61     0.007 C 
HETATM   37  C35 VFQ B1620     -39.667 136.555   9.706  1.00 22.05     0.001 C 
HETATM   38  C36 VFQ B1620     -34.255 126.030   8.098  1.00 45.52     0.020 C 
HETATM   39  C37 VFQ B1620     -35.526 126.989   6.191  1.00 45.52     0.020 C 
HETATM   40  C38 VFQ B1620     -32.335 130.091   5.990  1.00 45.52     0.044 C 
HETATM   41  C39 VFQ B1620     -34.807 130.310  10.549  1.00 22.70     0.048 C 
HETATM   42  C40 VFQ B1620     -38.188 134.451  11.419  1.00 23.56     0.048 C 
HETATM   43  O23 VFQ B1620     -32.183 125.927   3.652  1.00 45.52    -0.395 OA
ATOM     44  H23 VFQ B1620     -31.837 125.061   3.831  1.00  0.00     0.210 HD
ENDROOT
TORSDOF 12
