REMARK VINA RESULT:    -9.912      1.476     16.573
REMARK INTER + INTRA:         -10.575
REMARK INTER:                  -8.616
REMARK INTRA:                  -1.959
REMARK UNBOUND:                -0.663
REMARK  0 active torsions:
REMARK  status: ('A' for Active; 'I' for Inactive)
REMARK       I    between atoms: C3_3  and  O3_21 
REMARK       I    between atoms: C6_6  and  C7_7 
REMARK       I    between atoms: C8_8  and  C9_9 
REMARK       I    between atoms: C10_10  and  C11_11 
REMARK       I    between atoms: C12_12  and  C13_13 
REMARK       I    between atoms: C14_14  and  C15_15 
REMARK       I    between atoms: C23_25  and  O23_43 
REMARK       I    between atoms: C26_28  and  C27_29 
REMARK       I    between atoms: C28_30  and  C29_31 
REMARK       I    between atoms: C30_32  and  C31_33 
REMARK       I    between atoms: C32_34  and  C33_35 
REMARK       I    between atoms: C34_36  and  C35_37 
ROOT
HETATM    1  C1  VFQ s1620     -48.611 144.667  11.925  1.00 51.12    -0.018 C 
HETATM    2  C2  VFQ s1620     -49.188 145.068  13.275  1.00 51.12     0.045 C 
HETATM    3  C3  VFQ s1620     -48.564 146.226  14.040  1.00 51.12     0.123 C 
HETATM    4  C4  VFQ s1620     -47.668 147.092  13.180  1.00 51.12     0.066 C 
HETATM    5  C5  VFQ s1620     -46.739 146.223  12.397  1.00 51.12    -0.074 C 
HETATM    6  C6  VFQ s1620     -47.237 145.240  11.655  1.00 51.12    -0.048 C 
HETATM    7  C7  VFQ s1620     -46.468 144.690  10.524  1.00 51.12     0.009 C 
HETATM    8  C8  VFQ s1620     -45.511 143.799  10.740  1.00 51.12     0.007 C 
HETATM    9  C9  VFQ s1620     -44.756 143.215   9.635  1.00 51.12    -0.062 C 
HETATM   10  C10 VFQ s1620     -43.800 142.356   9.982  1.00 51.12     0.007 C 
HETATM   11  C11 VFQ s1620     -42.945 141.626   9.068  1.00 51.12     0.001 C 
HETATM   12  C12 VFQ s1620     -42.334 140.620   9.668  1.00 51.12     0.007 C 
HETATM   13  C13 VFQ s1620     -41.437 139.684   8.995  1.00 51.12    -0.062 C 
HETATM   14  C14 VFQ s1620     -40.996 138.650   9.713  1.00 51.12     0.007 C 
HETATM   15  C15 VFQ s1620     -40.140 137.627   9.141  1.00 51.12     0.001 C 
HETATM   16  C16 VFQ s1620     -49.621 145.053  10.851  1.00 51.12     0.020 C 
HETATM   17  C17 VFQ s1620     -48.471 143.156  11.910  1.00 51.12     0.020 C 
HETATM   18  C18 VFQ s1620     -45.655 147.134  11.910  1.00 51.12     0.044 C 
HETATM   19  C19 VFQ s1620     -45.075 143.573   8.217  1.00 51.12     0.048 C 
HETATM   20  C20 VFQ s1620     -41.053 139.883   7.567  1.00 51.12     0.048 C 
HETATM   21  O3  VFQ s1620     -49.615 147.064  14.527  1.00 51.12    -0.395 OA
ATOM     22  H3  VFQ s1620     -50.177 146.520  15.066  1.00  0.00     0.210 HD
HETATM   23  C21 VFQ s1620     -34.610 126.917   6.315  1.00 21.11    -0.018 C 
HETATM   24  C22 VFQ s1620     -34.063 125.851   5.349  1.00 20.11     0.045 C 
HETATM   25  C23 VFQ s1620     -32.749 126.097   4.609  1.00 19.41     0.123 C 
HETATM   26  C24 VFQ s1620     -31.998 127.385   4.977  1.00 18.39     0.066 C 
HETATM   27  C25 VFQ s1620     -32.434 128.258   6.105  1.00 18.34    -0.074 C 
HETATM   28  C26 VFQ s1620     -33.642 128.084   6.741  1.00 19.81    -0.048 C 
HETATM   29  C27 VFQ s1620     -34.146 128.914   7.859  1.00 19.02     0.009 C 
HETATM   30  C28 VFQ s1620     -34.739 130.115   7.722  1.00 17.97     0.007 C 
HETATM   31  C29 VFQ s1620     -35.240 130.943   8.786  1.00 51.12    -0.062 C 
HETATM   32  C30 VFQ s1620     -36.260 131.764   8.528  1.00 51.12     0.007 C 
HETATM   33  C31 VFQ s1620     -36.882 132.621   9.523  1.00 51.12     0.001 C 
HETATM   34  C32 VFQ s1620     -37.648 133.591   9.046  1.00 51.12     0.007 C 
HETATM   35  C33 VFQ s1620     -38.385 134.538   9.891  1.00 51.12    -0.062 C 
HETATM   36  C34 VFQ s1620     -38.964 135.563   9.264  1.00 51.12     0.007 C 
HETATM   37  C35 VFQ s1620     -39.778 136.591   9.890  1.00 51.12     0.001 C 
HETATM   38  C36 VFQ s1620     -35.103 126.137   7.552  1.00 19.56     0.020 C 
HETATM   39  C37 VFQ s1620     -35.853 127.477   5.576  1.00 18.49     0.020 C 
HETATM   40  C38 VFQ s1620     -31.362 129.244   6.390  1.00 16.89     0.044 C 
HETATM   41  C39 VFQ s1620     -34.625 130.857  10.146  1.00 51.12     0.048 C 
HETATM   42  C40 VFQ s1620     -38.500 134.335  11.370  1.00 51.12     0.048 C 
HETATM   43  O23 VFQ s1620     -32.957 126.033   3.209  1.00 18.27    -0.395 OA
ATOM     44  H23 VFQ s1620     -32.139 126.186   2.749  1.00  0.00     0.210 HD
ENDROOT
TORSDOF 12
