REMARK VINA RESULT:    -7.226      1.338     16.423
REMARK INTER + INTRA:         -10.186
REMARK INTER:                  -9.961
REMARK INTRA:                  -0.224
REMARK UNBOUND:                -2.960
REMARK  0 active torsions:
REMARK  status: ('A' for Active; 'I' for Inactive)
REMARK       I    between atoms: C3_3  and  O3_21 
REMARK       I    between atoms: C6_6  and  C7_7 
REMARK       I    between atoms: C8_8  and  C9_9 
REMARK       I    between atoms: C10_10  and  C11_11 
REMARK       I    between atoms: C12_12  and  C13_13 
REMARK       I    between atoms: C14_14  and  C15_15 
REMARK       I    between atoms: C23_25  and  O23_43 
REMARK       I    between atoms: C26_28  and  C27_29 
REMARK       I    between atoms: C28_30  and  C29_31 
REMARK       I    between atoms: C30_32  and  C31_33 
REMARK       I    between atoms: C32_34  and  C33_35 
REMARK       I    between atoms: C34_36  and  C35_37 
ROOT
HETATM    1  C1  VFQ 11620     -50.163 143.971  11.947  1.00 94.67    -0.018 C 
HETATM    2  C2  VFQ 11620     -50.706 144.281  13.335  1.00 94.67     0.045 C 
HETATM    3  C3  VFQ 11620     -49.986 145.359  14.118  1.00 94.67     0.123 C 
HETATM    4  C4  VFQ 11620     -49.702 146.520  13.205  1.00 94.67     0.066 C 
HETATM    5  C5  VFQ 11620     -48.838 146.070  12.069  1.00 94.67    -0.074 C 
HETATM    6  C6  VFQ 11620     -49.056 144.895  11.476  1.00 94.67    -0.048 C 
HETATM    7  C7  VFQ 11620     -48.229 144.461  10.324  1.00 94.67     0.009 C 
HETATM    8  C8  VFQ 11620     -47.095 143.787  10.506  1.00 94.67     0.007 C 
HETATM    9  C9  VFQ 11620     -46.258 143.321   9.402  1.00 94.67    -0.062 C 
HETATM   10  C10 VFQ 11620     -45.193 142.604   9.748  1.00 94.67     0.007 C 
HETATM   11  C11 VFQ 11620     -44.253 142.027   8.808  1.00 94.67     0.001 C 
HETATM   12  C12 VFQ 11620     -43.508 141.080   9.354  1.00 94.67     0.007 C 
HETATM   13  C13 VFQ 11620     -42.499 140.310   8.631  1.00 94.67    -0.062 C 
HETATM   14  C14 VFQ 11620     -41.912 139.326   9.309  1.00 94.67     0.007 C 
HETATM   15  C15 VFQ 11620     -40.912 138.437   8.739  1.00 94.67     0.001 C 
HETATM   16  C16 VFQ 11620     -51.362 144.022  11.006  1.00 94.67     0.020 C 
HETATM   17  C17 VFQ 11620     -49.586 142.563  11.982  1.00 94.67     0.020 C 
HETATM   18  C18 VFQ 11620     -47.778 147.031  11.617  1.00 94.67     0.044 C 
HETATM   19  C19 VFQ 11620     -46.590 143.631   7.975  1.00 94.67     0.048 C 
HETATM   20  C20 VFQ 11620     -42.170 140.606   7.202  1.00 94.67     0.048 C 
HETATM   21  O3  VFQ 11620     -50.845 145.814  15.164  1.00 94.67    -0.395 OA
ATOM     22  H3  VFQ 11620     -51.024 145.081  15.740  1.00  0.00     0.210 HD
HETATM   23  C21 VFQ 11620     -34.084 128.300   6.982  1.00 48.43    -0.018 C 
HETATM   24  C22 VFQ 11620     -33.161 127.499   6.075  1.00 44.61     0.045 C 
HETATM   25  C23 VFQ 11620     -31.701 127.909   6.074  1.00 44.41     0.123 C 
HETATM   26  C24 VFQ 11620     -31.566 129.413   6.081  1.00 41.53     0.066 C 
HETATM   27  C25 VFQ 11620     -32.227 129.928   7.319  1.00 37.72    -0.074 C 
HETATM   28  C26 VFQ 11620     -33.448 129.506   7.649  1.00 43.52    -0.048 C 
HETATM   29  C27 VFQ 11620     -34.240 130.176   8.708  1.00 44.60     0.009 C 
HETATM   30  C28 VFQ 11620     -34.937 131.281   8.480  1.00 43.22     0.007 C 
HETATM   31  C29 VFQ 11620     -35.752 131.904   9.531  1.00 94.67    -0.062 C 
HETATM   32  C30 VFQ 11620     -36.582 132.857   9.112  1.00 94.67     0.007 C 
HETATM   33  C31 VFQ 11620     -37.487 133.623   9.950  1.00 94.67     0.001 C 
HETATM   34  C32 VFQ 11620     -38.030 134.627   9.285  1.00 94.67     0.007 C 
HETATM   35  C33 VFQ 11620     -38.979 135.583   9.850  1.00 94.67    -0.062 C 
HETATM   36  C34 VFQ 11620     -39.573 136.434   9.008  1.00 94.67     0.007 C 
HETATM   37  C35 VFQ 11620     -40.545 137.404   9.486  1.00 94.67     0.001 C 
HETATM   38  C36 VFQ 11620     -34.543 127.424   8.132  1.00 47.48     0.020 C 
HETATM   39  C37 VFQ 11620     -35.285 128.678   6.122  1.00 54.25     0.020 C 
HETATM   40  C38 VFQ 11620     -31.462 130.903   8.150  1.00 37.77     0.044 C 
HETATM   41  C39 VFQ 11620     -35.659 131.491  10.966  1.00 94.67     0.048 C 
HETATM   42  C40 VFQ 11620     -39.249 135.607  11.319  1.00 94.67     0.048 C 
HETATM   43  O23 VFQ 11620     -31.078 127.399   4.895  1.00 48.83    -0.395 OA
ATOM     44  H23 VFQ 11620     -31.163 126.453   4.891  1.00  0.00     0.210 HD
ENDROOT
TORSDOF 12
