REMARK VINA RESULT:    -8.621      0.000      0.000
REMARK INTER + INTRA:         -11.781
REMARK INTER:                  -8.621
REMARK INTRA:                  -3.161
REMARK UNBOUND:                -3.161
REMARK  0 active torsions:
REMARK  status: ('A' for Active; 'I' for Inactive)
REMARK       I    between atoms: C3_3  and  O3_21 
REMARK       I    between atoms: C6_6  and  C7_7 
REMARK       I    between atoms: C8_8  and  C9_9 
REMARK       I    between atoms: C10_10  and  C11_11 
REMARK       I    between atoms: C12_12  and  C13_13 
REMARK       I    between atoms: C14_14  and  C15_15 
REMARK       I    between atoms: C23_25  and  O23_43 
REMARK       I    between atoms: C26_28  and  C27_29 
REMARK       I    between atoms: C28_30  and  C29_31 
REMARK       I    between atoms: C30_32  and  C31_33 
REMARK       I    between atoms: C32_34  and  C33_35 
REMARK       I    between atoms: C34_36  and  C35_37 
ROOT
HETATM    1  C1  VFQ 9 616     -34.409 127.678   6.322  1.00 62.55    -0.018 C 
HETATM    2  C2  VFQ 9 616     -33.746 127.297   5.000  1.00 62.55     0.045 C 
HETATM    3  C3  VFQ 9 616     -32.355 127.850   4.706  1.00 62.55     0.123 C 
HETATM    4  C4  VFQ 9 616     -31.540 127.991   5.977  1.00 62.55     0.066 C 
HETATM    5  C5  VFQ 9 616     -32.311 128.905   6.890  1.00 62.55    -0.074 C 
HETATM    6  C6  VFQ 9 616     -33.606 128.679   7.138  1.00 62.55    -0.048 C 
HETATM    7  C7  VFQ 9 616     -34.269 129.400   8.248  1.00 62.55     0.009 C 
HETATM    8  C8  VFQ 9 616     -34.869 130.572   8.054  1.00 62.55     0.007 C 
HETATM    9  C9  VFQ 9 616     -35.522 131.296   9.151  1.00 62.55    -0.062 C 
HETATM   10  C10 VFQ 9 616     -36.244 132.369   8.823  1.00 62.55     0.007 C 
HETATM   11  C11 VFQ 9 616     -36.949 133.217   9.773  1.00 62.55     0.001 C 
HETATM   12  C12 VFQ 9 616     -37.733 134.118   9.199  1.00 62.55     0.007 C 
HETATM   13  C13 VFQ 9 616     -38.540 135.111   9.909  1.00 62.55    -0.062 C 
HETATM   14  C14 VFQ 9 616     -39.281 135.964   9.177  1.00 62.55     0.007 C 
HETATM   15  C15 VFQ 9 616     -40.144 137.011   9.720  1.00 62.55     0.001 C 
HETATM   16  C16 VFQ 9 616     -34.658 126.384   7.100  1.00 62.55     0.020 C 
HETATM   17  C17 VFQ 9 616     -35.754 128.318   6.012  1.00 62.55     0.020 C 
HETATM   18  C18 VFQ 9 616     -31.438 129.649   7.861  1.00 62.55     0.044 C 
HETATM   19  C19 VFQ 9 616     -35.372 130.840  10.570  1.00 62.55     0.048 C 
HETATM   20  C20 VFQ 9 616     -38.485 135.131  11.398  1.00 62.55     0.048 C 
HETATM   21  O3  VFQ 9 616     -31.676 126.964   3.808  1.00 62.55    -0.395 OA
ATOM     22  H3  VFQ 9 616     -30.810 127.308   3.625  1.00  0.00     0.210 HD
HETATM   23  C21 VFQ 9 616     -49.445 145.385  10.511  1.00 43.24    -0.018 C 
HETATM   24  C22 VFQ 9 616     -50.313 146.481  11.133  1.00 43.24     0.045 C 
HETATM   25  C23 VFQ 9 616     -49.748 147.898  11.215  1.00 43.24     0.123 C 
HETATM   26  C24 VFQ 9 616     -48.234 147.914  11.298  1.00 43.24     0.066 C 
HETATM   27  C25 VFQ 9 616     -47.677 147.114  10.154  1.00 43.24    -0.074 C 
HETATM   28  C26 VFQ 9 616     -48.158 145.896   9.877  1.00 43.24    -0.048 C 
HETATM   29  C27 VFQ 9 616     -47.418 145.038   8.918  1.00 43.24     0.009 C 
HETATM   30  C28 VFQ 9 616     -46.476 144.192   9.339  1.00 43.24     0.007 C 
HETATM   31  C29 VFQ 9 616     -45.691 143.328   8.439  1.00 62.55    -0.062 C 
HETATM   32  C30 VFQ 9 616     -44.982 142.333   8.996  1.00 62.55     0.007 C 
HETATM   33  C31 VFQ 9 616     -44.164 141.368   8.266  1.00 62.55     0.001 C 
HETATM   34  C32 VFQ 9 616     -43.429 140.547   9.017  1.00 62.55     0.007 C 
HETATM   35  C33 VFQ 9 616     -42.540 139.496   8.488  1.00 62.55    -0.062 C 
HETATM   36  C34 VFQ 9 616     -41.796 138.770   9.342  1.00 62.55     0.007 C 
HETATM   37  C35 VFQ 9 616     -40.900 137.711   8.871  1.00 62.55     0.001 C 
HETATM   38  C36 VFQ 9 616     -50.245 144.690   9.418  1.00 43.24     0.020 C 
HETATM   39  C37 VFQ 9 616     -49.166 144.365  11.609  1.00 43.24     0.020 C 
HETATM   40  C38 VFQ 9 616     -46.585 147.744   9.336  1.00 43.24     0.044 C 
HETATM   41  C39 VFQ 9 616     -45.691 143.546   6.956  1.00 62.55     0.048 C 
HETATM   42  C40 VFQ 9 616     -42.485 139.247   7.012  1.00 62.55     0.048 C 
HETATM   43  O23 VFQ 9 616     -50.268 148.540  12.382  1.00 43.24    -0.395 OA
ATOM     44  H23 VFQ 9 616     -49.916 149.420  12.433  1.00  0.00     0.210 HD
ENDROOT
TORSDOF 12
