REMARK VINA RESULT:    -8.834      0.640     16.914
REMARK INTER + INTRA:         -11.378
REMARK INTER:                  -9.825
REMARK INTRA:                  -1.553
REMARK UNBOUND:                -2.544
REMARK  0 active torsions:
REMARK  status: ('A' for Active; 'I' for Inactive)
REMARK       I    between atoms: C3_3  and  O3_21 
REMARK       I    between atoms: C6_6  and  C7_7 
REMARK       I    between atoms: C8_8  and  C9_9 
REMARK       I    between atoms: C10_10  and  C11_11 
REMARK       I    between atoms: C12_12  and  C13_13 
REMARK       I    between atoms: C14_14  and  C15_15 
REMARK       I    between atoms: C23_25  and  O23_43 
REMARK       I    between atoms: C26_28  and  C27_29 
REMARK       I    between atoms: C28_30  and  C29_31 
REMARK       I    between atoms: C30_32  and  C31_33 
REMARK       I    between atoms: C32_34  and  C33_35 
REMARK       I    between atoms: C34_36  and  C35_37 
ROOT
HETATM    1  C1  VFQ 1 316     -49.584 144.790  12.855  1.00 73.24    -0.018 C 
HETATM    2  C2  VFQ 1 316     -49.952 145.437  14.193  1.00 72.84     0.045 C 
HETATM    3  C3  VFQ 1 316     -48.996 146.495  14.728  1.00 72.53     0.123 C 
HETATM    4  C4  VFQ 1 316     -48.535 147.400  13.601  1.00 72.61     0.066 C 
HETATM    5  C5  VFQ 1 316     -47.862 146.569  12.541  1.00 72.68    -0.074 C 
HETATM    6  C6  VFQ 1 316     -48.390 145.408  12.149  1.00 72.79    -0.048 C 
HETATM    7  C7  VFQ 1 316     -47.796 144.687  10.996  1.00 71.90     0.009 C 
HETATM    8  C8  VFQ 1 316     -46.737 143.893  11.167  1.00 71.51     0.007 C 
HETATM    9  C9  VFQ 1 316     -46.106 143.146  10.058  1.00 70.48    -0.062 C 
HETATM   10  C10 VFQ 1 316     -45.084 142.328  10.350  1.00 69.46     0.007 C 
HETATM   11  C11 VFQ 1 316     -44.360 141.518   9.372  1.00 69.85     0.001 C 
HETATM   12  C12 VFQ 1 316     -43.390 140.739   9.851  1.00 72.15     0.007 C 
HETATM   13  C13 VFQ 1 316     -42.559 139.836   9.027  1.00 73.74    -0.062 C 
HETATM   14  C14 VFQ 1 316     -41.798 138.930   9.667  1.00 74.04     0.007 C 
HETATM   15  C15 VFQ 1 316     -40.949 137.961   8.975  1.00 74.62     0.001 C 
HETATM   16  C16 VFQ 1 316     -50.794 144.890  11.935  1.00 72.68     0.020 C 
HETATM   17  C17 VFQ 1 316     -49.263 143.322  13.107  1.00 73.05     0.020 C 
HETATM   18  C18 VFQ 1 316     -46.801 147.243  11.719  1.00 72.13     0.044 C 
HETATM   19  C19 VFQ 1 316     -46.592 143.307   8.648  1.00 70.45     0.048 C 
HETATM   20  C20 VFQ 1 316     -42.561 139.932   7.527  1.00 72.89     0.048 C 
HETATM   21  O3  VFQ 1 316     -49.666 147.284  15.721  1.00 71.04    -0.395 OA
ATOM     22  H3  VFQ 1 316     -49.955 146.717  16.427  1.00  0.00     0.210 HD
HETATM   23  C21 VFQ 1 316     -34.233 127.203   6.994  1.00 20.77    -0.018 C 
HETATM   24  C22 VFQ 1 316     -33.513 126.199   6.080  1.00 19.21     0.045 C 
HETATM   25  C23 VFQ 1 316     -32.334 126.648   5.219  1.00 20.68     0.123 C 
HETATM   26  C24 VFQ 1 316     -31.925 128.117   5.364  1.00 17.77     0.066 C 
HETATM   27  C25 VFQ 1 316     -32.509 128.986   6.431  1.00 19.05    -0.074 C 
HETATM   28  C26 VFQ 1 316     -33.581 128.606   7.215  1.00 19.48    -0.048 C 
HETATM   29  C27 VFQ 1 316     -34.200 129.445   8.279  1.00 16.56     0.009 C 
HETATM   30  C28 VFQ 1 316     -35.082 130.456   8.064  1.00 15.55     0.007 C 
HETATM   31  C29 VFQ 1 316     -35.684 131.327   9.046  1.00 94.72    -0.062 C 
HETATM   32  C30 VFQ 1 316     -36.552 132.266   8.645  1.00 91.32     0.007 C 
HETATM   33  C31 VFQ 1 316     -37.234 133.186   9.552  1.00 87.88     0.001 C 
HETATM   34  C32 VFQ 1 316     -37.977 134.132   8.984  1.00 84.19     0.007 C 
HETATM   35  C33 VFQ 1 316     -38.761 135.130   9.732  1.00 80.79    -0.062 C 
HETATM   36  C34 VFQ 1 316     -39.434 136.066   9.039  1.00 78.84     0.007 C 
HETATM   37  C35 VFQ 1 316     -40.264 137.072   9.698  1.00 76.79     0.001 C 
HETATM   38  C36 VFQ 1 316     -34.433 126.479   8.343  1.00 20.67     0.020 C 
HETATM   39  C37 VFQ 1 316     -35.624 127.366   6.335  1.00 19.98     0.020 C 
HETATM   40  C38 VFQ 1 316     -31.742 130.262   6.478  1.00 17.40     0.044 C 
HETATM   41  C39 VFQ 1 316     -35.338 131.157  10.494  1.00 95.37     0.048 C 
HETATM   42  C40 VFQ 1 316     -38.822 135.078  11.229  1.00 90.13     0.048 C 
HETATM   43  O23 VFQ 1 316     -32.565 126.324   3.852  1.00 20.33    -0.395 OA
ATOM     44  H23 VFQ 1 316     -31.831 126.603   3.317  1.00  0.00     0.210 HD
ENDROOT
TORSDOF 12
