REMARK VINA RESULT:   -11.556      0.000      0.000
REMARK INTER + INTRA:         -14.063
REMARK INTER:                 -11.556
REMARK INTRA:                  -2.507
REMARK UNBOUND:                -2.507
REMARK  0 active torsions:
REMARK  status: ('A' for Active; 'I' for Inactive)
REMARK       I    between atoms: C3_3  and  O3_21 
REMARK       I    between atoms: C6_6  and  C7_7 
REMARK       I    between atoms: C8_8  and  C9_9 
REMARK       I    between atoms: C10_10  and  C11_11 
REMARK       I    between atoms: C12_12  and  C13_13 
REMARK       I    between atoms: C14_14  and  C15_15 
REMARK       I    between atoms: C23_25  and  O23_43 
REMARK       I    between atoms: C26_28  and  C27_29 
REMARK       I    between atoms: C28_30  and  C29_31 
REMARK       I    between atoms: C30_32  and  C31_33 
REMARK       I    between atoms: C32_34  and  C33_35 
REMARK       I    between atoms: C34_36  and  C35_37 
ROOT
HETATM    1  C1  VFQ 1 619     -34.323 126.806   6.451  1.00 34.54    -0.018 C 
HETATM    2  C2  VFQ 1 619     -34.090 126.202   5.066  1.00 34.54     0.045 C 
HETATM    3  C3  VFQ 1 619     -33.103 126.887   4.121  1.00 34.54     0.123 C 
HETATM    4  C4  VFQ 1 619     -32.112 127.794   4.832  1.00 34.54     0.066 C 
HETATM    5  C5  VFQ 1 619     -32.877 128.710   5.743  1.00 34.54    -0.074 C 
HETATM    6  C6  VFQ 1 619     -33.776 128.216   6.602  1.00 34.54    -0.048 C 
HETATM    7  C7  VFQ 1 619     -34.226 129.062   7.732  1.00 34.54     0.009 C 
HETATM    8  C8  VFQ 1 619     -35.265 129.879   7.578  1.00 34.54     0.007 C 
HETATM    9  C9  VFQ 1 619     -35.779 130.768   8.632  1.00 34.54    -0.062 C 
HETATM   10  C10 VFQ 1 619     -36.675 131.663   8.223  1.00 34.54     0.007 C 
HETATM   11  C11 VFQ 1 619     -37.324 132.662   9.053  1.00 34.54     0.001 C 
HETATM   12  C12 VFQ 1 619     -38.182 133.416   8.380  1.00 34.54     0.007 C 
HETATM   13  C13 VFQ 1 619     -38.955 134.504   8.984  1.00 34.54    -0.062 C 
HETATM   14  C14 VFQ 1 619     -39.988 134.997   8.291  1.00 34.54     0.007 C 
HETATM   15  C15 VFQ 1 619     -40.789 136.087   8.822  1.00 34.54     0.001 C 
HETATM   16  C16 VFQ 1 619     -33.721 125.850   7.478  1.00 34.54     0.020 C 
HETATM   17  C17 VFQ 1 619     -35.822 126.865   6.709  1.00 34.54     0.020 C 
HETATM   18  C18 VFQ 1 619     -32.043 129.913   6.078  1.00 34.54     0.044 C 
HETATM   19  C19 VFQ 1 619     -35.327 130.685  10.058  1.00 34.54     0.048 C 
HETATM   20  C20 VFQ 1 619     -38.579 135.051  10.328  1.00 34.54     0.048 C 
HETATM   21  O3  VFQ 1 619     -32.378 125.880   3.408  1.00 34.54    -0.395 OA
ATOM     22  H3  VFQ 1 619     -32.998 125.313   2.964  1.00  0.00     0.210 HD
HETATM   23  C21 VFQ 1 619     -50.902 143.272  11.980  1.00 87.69    -0.018 C 
HETATM   24  C22 VFQ 1 619     -51.626 144.570  12.285  1.00 87.69     0.045 C 
HETATM   25  C23 VFQ 1 619     -50.784 145.840  12.284  1.00 87.69     0.123 C 
HETATM   26  C24 VFQ 1 619     -49.576 145.817  11.356  1.00 87.69     0.066 C 
HETATM   27  C25 VFQ 1 619     -49.558 144.634  10.424  1.00 87.69    -0.074 C 
HETATM   28  C26 VFQ 1 619     -49.951 143.427  10.824  1.00 87.69    -0.048 C 
HETATM   29  C27 VFQ 1 619     -49.494 142.205  10.123  1.00 87.69     0.009 C 
HETATM   30  C28 VFQ 1 619     -48.308 141.669  10.387  1.00 87.69     0.007 C 
HETATM   31  C29 VFQ 1 619     -47.838 140.449   9.723  1.00 34.54    -0.062 C 
HETATM   32  C30 VFQ 1 619     -46.531 140.166   9.755  1.00 34.54     0.007 C 
HETATM   33  C31 VFQ 1 619     -45.974 138.983   9.112  1.00 34.54     0.001 C 
HETATM   34  C32 VFQ 1 619     -44.652 138.863   9.125  1.00 34.54     0.007 C 
HETATM   35  C33 VFQ 1 619     -43.968 137.715   8.511  1.00 34.54    -0.062 C 
HETATM   36  C34 VFQ 1 619     -42.670 137.549   8.775  1.00 34.54     0.007 C 
HETATM   37  C35 VFQ 1 619     -41.909 136.447   8.210  1.00 34.54     0.001 C 
HETATM   38  C36 VFQ 1 619     -51.951 142.262  11.571  1.00 87.69     0.020 C 
HETATM   39  C37 VFQ 1 619     -50.189 142.743  13.221  1.00 87.69     0.020 C 
HETATM   40  C38 VFQ 1 619     -49.090 144.871   9.023  1.00 87.69     0.044 C 
HETATM   41  C39 VFQ 1 619     -48.809 139.550   9.017  1.00 34.54     0.048 C 
HETATM   42  C40 VFQ 1 619     -44.709 136.764   7.617  1.00 34.54     0.048 C 
HETATM   43  O23 VFQ 1 619     -50.315 146.036  13.616  1.00 87.69    -0.395 OA
ATOM     44  H23 VFQ 1 619     -51.068 146.051  14.195  1.00  0.00     0.210 HD
ENDROOT
TORSDOF 12
