REMARK VINA RESULT:    -9.289      0.000      0.000
REMARK INTER + INTRA:         -12.131
REMARK INTER:                  -9.289
REMARK INTRA:                  -2.842
REMARK UNBOUND:                -2.842
REMARK  0 active torsions:
REMARK  status: ('A' for Active; 'I' for Inactive)
REMARK       I    between atoms: C3_3  and  O3_21 
REMARK       I    between atoms: C6_6  and  C7_7 
REMARK       I    between atoms: C8_8  and  C9_9 
REMARK       I    between atoms: C10_10  and  C11_11 
REMARK       I    between atoms: C12_12  and  C13_13 
REMARK       I    between atoms: C14_14  and  C15_15 
REMARK       I    between atoms: C23_25  and  O23_43 
REMARK       I    between atoms: C26_28  and  C27_29 
REMARK       I    between atoms: C28_30  and  C29_31 
REMARK       I    between atoms: C30_32  and  C31_33 
REMARK       I    between atoms: C32_34  and  C33_35 
REMARK       I    between atoms: C34_36  and  C35_37 
ROOT
HETATM    1  C1  VFQ 51620     -34.424 127.758   6.530  1.00 94.67    -0.018 C 
HETATM    2  C2  VFQ 51620     -33.757 127.389   5.212  1.00 94.67     0.045 C 
HETATM    3  C3  VFQ 51620     -32.451 128.088   4.895  1.00 94.67     0.123 C 
HETATM    4  C4  VFQ 51620     -31.592 128.103   6.131  1.00 94.67     0.066 C 
HETATM    5  C5  VFQ 51620     -32.297 128.839   7.227  1.00 94.67    -0.074 C 
HETATM    6  C6  VFQ 51620     -33.606 128.674   7.421  1.00 94.67    -0.048 C 
HETATM    7  C7  VFQ 51620     -34.305 129.373   8.526  1.00 94.67     0.009 C 
HETATM    8  C8  VFQ 51620     -34.816 130.590   8.358  1.00 94.67     0.007 C 
HETATM    9  C9  VFQ 51620     -35.530 131.310   9.412  1.00 94.67    -0.062 C 
HETATM   10  C10 VFQ 51620     -36.038 132.488   9.063  1.00 94.67     0.007 C 
HETATM   11  C11 VFQ 51620     -36.802 133.345   9.950  1.00 94.67     0.001 C 
HETATM   12  C12 VFQ 51620     -37.492 134.263   9.294  1.00 94.67     0.007 C 
HETATM   13  C13 VFQ 51620     -38.371 135.241   9.931  1.00 94.67    -0.062 C 
HETATM   14  C14 VFQ 51620     -39.068 136.026   9.114  1.00 94.67     0.007 C 
HETATM   15  C15 VFQ 51620     -40.015 137.030   9.572  1.00 94.67     0.001 C 
HETATM   16  C16 VFQ 51620     -34.732 126.437   7.228  1.00 94.67     0.020 C 
HETATM   17  C17 VFQ 51620     -35.717 128.490   6.201  1.00 94.67     0.020 C 
HETATM   18  C18 VFQ 51620     -31.442 129.707   8.102  1.00 94.67     0.044 C 
HETATM   19  C19 VFQ 51620     -35.677 130.745  10.791  1.00 94.67     0.048 C 
HETATM   20  C20 VFQ 51620     -38.488 135.327  11.419  1.00 94.67     0.048 C 
HETATM   21  O3  VFQ 51620     -31.767 127.343   3.888  1.00 94.67    -0.395 OA
ATOM     22  H3  VFQ 51620     -30.947 127.782   3.689  1.00  0.00     0.210 HD
HETATM   23  C21 VFQ 51620     -49.708 144.726   9.670  1.00 73.56    -0.018 C 
HETATM   24  C22 VFQ 51620     -50.637 145.709  10.386  1.00 73.56     0.045 C 
HETATM   25  C23 VFQ 51620     -50.080 147.070  10.791  1.00 73.56     0.123 C 
HETATM   26  C24 VFQ 51620     -48.594 146.992  11.107  1.00 73.56     0.066 C 
HETATM   27  C25 VFQ 51620     -47.904 146.429   9.893  1.00 73.56    -0.074 C 
HETATM   28  C26 VFQ 51620     -48.325 145.278   9.357  1.00 73.56    -0.048 C 
HETATM   29  C27 VFQ 51620     -47.453 144.535   8.414  1.00 73.56     0.009 C 
HETATM   30  C28 VFQ 51620     -46.507 143.686   8.821  1.00 73.56     0.007 C 
HETATM   31  C29 VFQ 51620     -45.658 142.961   7.863  1.00 94.67    -0.062 C 
HETATM   32  C30 VFQ 51620     -44.930 141.977   8.386  1.00 94.67     0.007 C 
HETATM   33  C31 VFQ 51620     -44.014 141.119   7.657  1.00 94.67     0.001 C 
HETATM   34  C32 VFQ 51620     -43.290 140.376   8.474  1.00 94.67     0.007 C 
HETATM   35  C33 VFQ 51620     -42.277 139.413   8.048  1.00 94.67    -0.062 C 
HETATM   36  C34 VFQ 51620     -41.754 138.613   8.981  1.00 94.67     0.007 C 
HETATM   37  C35 VFQ 51620     -40.755 137.614   8.639  1.00 94.67     0.001 C 
HETATM   38  C36 VFQ 51620     -50.346 144.349   8.338  1.00 73.56     0.020 C 
HETATM   39  C37 VFQ 51620     -49.609 143.471  10.537  1.00 73.56     0.020 C 
HETATM   40  C38 VFQ 51620     -46.771 147.210   9.289  1.00 73.56     0.044 C 
HETATM   41  C39 VFQ 51620     -45.621 143.303   6.408  1.00 94.67     0.048 C 
HETATM   42  C40 VFQ 51620     -41.838 139.354   6.621  1.00 94.67     0.048 C 
HETATM   43  O23 VFQ 51620     -50.783 147.535  11.950  1.00 73.56    -0.395 OA
ATOM     44  H23 VFQ 51620     -50.436 148.383  12.202  1.00  0.00     0.210 HD
ENDROOT
TORSDOF 12
