REMARK VINA RESULT:    -9.215      1.722     16.775
REMARK INTER + INTRA:         -11.693
REMARK INTER:                  -9.755
REMARK INTRA:                  -1.939
REMARK UNBOUND:                -2.478
REMARK  0 active torsions:
REMARK  status: ('A' for Active; 'I' for Inactive)
REMARK       I    between atoms: C3_3  and  O3_21 
REMARK       I    between atoms: C6_6  and  C7_7 
REMARK       I    between atoms: C8_8  and  C9_9 
REMARK       I    between atoms: C10_10  and  C11_11 
REMARK       I    between atoms: C12_12  and  C13_13 
REMARK       I    between atoms: C14_14  and  C15_15 
REMARK       I    between atoms: C23_25  and  O23_43 
REMARK       I    between atoms: C26_28  and  C27_29 
REMARK       I    between atoms: C28_30  and  C29_31 
REMARK       I    between atoms: C30_32  and  C31_33 
REMARK       I    between atoms: C32_34  and  C33_35 
REMARK       I    between atoms: C34_36  and  C35_37 
ROOT
HETATM    1  C1  VFQ Z1621     -47.745 146.157  12.754  1.00 27.99    -0.018 C 
HETATM    2  C2  VFQ Z1621     -48.161 146.321  14.222  1.00 27.99     0.045 C 
HETATM    3  C3  VFQ Z1621     -47.073 146.838  15.154  1.00 27.99     0.123 C 
HETATM    4  C4  VFQ Z1621     -46.310 147.939  14.443  1.00 27.99     0.066 C 
HETATM    5  C5  VFQ Z1621     -45.597 147.263  13.309  1.00 27.99    -0.074 C 
HETATM    6  C6  VFQ Z1621     -46.306 146.539  12.435  1.00 27.99    -0.048 C 
HETATM    7  C7  VFQ Z1621     -45.682 145.892  11.258  1.00 27.99     0.009 C 
HETATM    8  C8  VFQ Z1621     -44.453 145.380  11.405  1.00 27.99     0.007 C 
HETATM    9  C9  VFQ Z1621     -43.905 144.513  10.335  1.00 27.99    -0.062 C 
HETATM   10  C10 VFQ Z1621     -42.991 143.588  10.700  1.00 27.99     0.007 C 
HETATM   11  C11 VFQ Z1621     -42.483 142.557   9.791  1.00 27.99     0.001 C 
HETATM   12  C12 VFQ Z1621     -41.779 141.532  10.273  1.00 27.99     0.007 C 
HETATM   13  C13 VFQ Z1621     -41.327 140.426   9.395  1.00 27.99    -0.062 C 
HETATM   14  C14 VFQ Z1621     -40.755 139.355   9.987  1.00 27.99     0.007 C 
HETATM   15  C15 VFQ Z1621     -40.277 138.171   9.267  1.00 27.99     0.001 C 
HETATM   16  C16 VFQ Z1621     -48.567 147.148  11.927  1.00 27.99     0.020 C 
HETATM   17  C17 VFQ Z1621     -48.064 144.728  12.321  1.00 27.99     0.020 C 
HETATM   18  C18 VFQ Z1621     -44.365 148.033  12.920  1.00 27.99     0.044 C 
HETATM   19  C19 VFQ Z1621     -44.451 144.625   8.931  1.00 27.99     0.048 C 
HETATM   20  C20 VFQ Z1621     -41.555 140.538   7.910  1.00 27.99     0.048 C 
HETATM   21  O3  VFQ Z1621     -47.654 147.338  16.366  1.00 27.99    -0.395 OA
ATOM     22  H3  VFQ Z1621     -48.133 146.648  16.812  1.00  0.00     0.210 HD
HETATM   23  C21 VFQ Z1621     -34.487 126.966   6.613  1.00 19.54    -0.018 C 
HETATM   24  C22 VFQ Z1621     -33.887 126.110   5.500  1.00 19.54     0.045 C 
HETATM   25  C23 VFQ Z1621     -32.561 126.528   4.896  1.00 19.54     0.123 C 
HETATM   26  C24 VFQ Z1621     -32.573 128.012   4.629  1.00 19.54     0.066 C 
HETATM   27  C25 VFQ Z1621     -32.956 128.783   5.865  1.00 19.54    -0.074 C 
HETATM   28  C26 VFQ Z1621     -33.911 128.366   6.715  1.00 19.54    -0.048 C 
HETATM   29  C27 VFQ Z1621     -34.392 129.253   7.815  1.00 19.54     0.009 C 
HETATM   30  C28 VFQ Z1621     -35.359 130.168   7.664  1.00 19.54     0.007 C 
HETATM   31  C29 VFQ Z1621     -35.833 131.034   8.750  1.00 27.99    -0.062 C 
HETATM   32  C30 VFQ Z1621     -36.776 131.945   8.437  1.00 27.99     0.007 C 
HETATM   33  C31 VFQ Z1621     -37.314 132.920   9.384  1.00 27.99     0.001 C 
HETATM   34  C32 VFQ Z1621     -38.115 133.884   8.933  1.00 27.99     0.007 C 
HETATM   35  C33 VFQ Z1621     -38.612 134.953   9.824  1.00 27.99    -0.062 C 
HETATM   36  C34 VFQ Z1621     -39.238 135.994   9.235  1.00 27.99     0.007 C 
HETATM   37  C35 VFQ Z1621     -39.736 137.169   9.953  1.00 27.99     0.001 C 
HETATM   38  C36 VFQ Z1621     -34.229 126.290   7.951  1.00 19.54     0.020 C 
HETATM   39  C37 VFQ Z1621     -35.990 126.976   6.359  1.00 19.54     0.020 C 
HETATM   40  C38 VFQ Z1621     -32.193 130.049   6.101  1.00 19.54     0.044 C 
HETATM   41  C39 VFQ Z1621     -35.251 130.840  10.125  1.00 27.99     0.048 C 
HETATM   42  C40 VFQ Z1621     -38.347 134.858  11.303  1.00 27.99     0.048 C 
HETATM   43  O23 VFQ Z1621     -32.394 125.850   3.649  1.00 19.54    -0.395 OA
ATOM     44  H23 VFQ Z1621     -31.564 126.113   3.270  1.00  0.00     0.210 HD
ENDROOT
TORSDOF 12
