REMARK VINA RESULT:   -11.318      0.000      0.000
REMARK INTER + INTRA:         -11.761
REMARK INTER:                 -11.318
REMARK INTRA:                  -0.443
REMARK UNBOUND:                -0.443
REMARK  0 active torsions:
REMARK  status: ('A' for Active; 'I' for Inactive)
REMARK       I    between atoms: C3_3  and  O3_21 
REMARK       I    between atoms: C6_6  and  C7_7 
REMARK       I    between atoms: C8_8  and  C9_9 
REMARK       I    between atoms: C10_10  and  C11_11 
REMARK       I    between atoms: C12_12  and  C13_13 
REMARK       I    between atoms: C14_14  and  C15_15 
REMARK       I    between atoms: C23_25  and  O23_43 
REMARK       I    between atoms: C26_28  and  C27_29 
REMARK       I    between atoms: C28_30  and  C29_31 
REMARK       I    between atoms: C30_32  and  C31_33 
REMARK       I    between atoms: C32_34  and  C33_35 
REMARK       I    between atoms: C34_36  and  C35_37 
ROOT
HETATM    1  C1  VFQ S1620     -34.199 128.326   6.940  1.00 51.40    -0.018 C 
HETATM    2  C2  VFQ S1620     -33.452 127.919   5.678  1.00 51.40     0.045 C 
HETATM    3  C3  VFQ S1620     -32.038 128.437   5.448  1.00 51.40     0.123 C 
HETATM    4  C4  VFQ S1620     -31.402 129.002   6.699  1.00 51.40     0.066 C 
HETATM    5  C5  VFQ S1620     -32.360 129.930   7.371  1.00 51.40    -0.074 C 
HETATM    6  C6  VFQ S1620     -33.585 129.505   7.660  1.00 51.40    -0.048 C 
HETATM    7  C7  VFQ S1620     -34.378 130.161   8.715  1.00 51.40     0.009 C 
HETATM    8  C8  VFQ S1620     -35.027 131.287   8.458  1.00 51.40     0.007 C 
HETATM    9  C9  VFQ S1620     -35.844 131.941   9.475  1.00 51.40    -0.062 C 
HETATM   10  C10 VFQ S1620     -36.419 133.083   9.106  1.00 51.40     0.007 C 
HETATM   11  C11 VFQ S1620     -37.299 133.892   9.925  1.00 51.40     0.001 C 
HETATM   12  C12 VFQ S1620     -37.971 134.768   9.200  1.00 51.40     0.007 C 
HETATM   13  C13 VFQ S1620     -38.959 135.698   9.742  1.00 51.40    -0.062 C 
HETATM   14  C14 VFQ S1620     -39.639 136.436   8.864  1.00 51.40     0.007 C 
HETATM   15  C15 VFQ S1620     -40.681 137.356   9.278  1.00 51.40     0.001 C 
HETATM   16  C16 VFQ S1620     -34.312 127.097   7.833  1.00 51.40     0.020 C 
HETATM   17  C17 VFQ S1620     -35.604 128.736   6.536  1.00 51.40     0.020 C 
HETATM   18  C18 VFQ S1620     -31.535 130.730   8.330  1.00 51.40     0.044 C 
HETATM   19  C19 VFQ S1620     -36.013 131.329  10.831  1.00 51.40     0.048 C 
HETATM   20  C20 VFQ S1620     -39.197 135.791  11.213  1.00 51.40     0.048 C 
HETATM   21  O3  VFQ S1620     -31.222 127.347   5.016  1.00 51.40    -0.395 OA
ATOM     22  H3  VFQ S1620     -30.340 127.671   4.873  1.00  0.00     0.210 HD
HETATM   23  C21 VFQ S1620     -50.975 144.512  10.046  1.00 21.49    -0.018 C 
HETATM   24  C22 VFQ S1620     -52.115 145.272  10.761  1.00 21.50     0.045 C 
HETATM   25  C23 VFQ S1620     -51.814 146.604  11.457  1.00 22.37     0.123 C 
HETATM   26  C24 VFQ S1620     -50.332 146.886  11.720  1.00 21.17     0.066 C 
HETATM   27  C25 VFQ S1620     -49.297 146.258  10.844  1.00 19.70    -0.074 C 
HETATM   28  C26 VFQ S1620     -49.561 145.156  10.053  1.00 20.41    -0.048 C 
HETATM   29  C27 VFQ S1620     -48.536 144.545   9.184  1.00 19.41     0.009 C 
HETATM   30  C28 VFQ S1620     -47.534 143.730   9.545  1.00 18.90     0.007 C 
HETATM   31  C29 VFQ S1620     -46.469 143.271   8.689  1.00 51.40    -0.062 C 
HETATM   32  C30 VFQ S1620     -45.909 142.088   8.951  1.00 51.40     0.007 C 
HETATM   33  C31 VFQ S1620     -44.856 141.492   8.145  1.00 51.40     0.001 C 
HETATM   34  C32 VFQ S1620     -44.194 140.496   8.711  1.00 51.40     0.007 C 
HETATM   35  C33 VFQ S1620     -43.118 139.749   8.047  1.00 51.40    -0.062 C 
HETATM   36  C34 VFQ S1620     -42.431 138.897   8.809  1.00 51.40     0.007 C 
HETATM   37  C35 VFQ S1620     -41.363 138.026   8.354  1.00 51.40     0.001 C 
HETATM   38  C36 VFQ S1620     -51.438 144.246   8.591  1.00 19.84     0.020 C 
HETATM   39  C37 VFQ S1620     -50.934 143.163  10.793  1.00 19.63     0.020 C 
HETATM   40  C38 VFQ S1620     -48.043 147.041  11.005  1.00 19.29     0.044 C 
HETATM   41  C39 VFQ S1620     -46.028 144.109   7.532  1.00 51.40     0.048 C 
HETATM   42  C40 VFQ S1620     -42.841 139.923   6.587  1.00 51.40     0.048 C 
HETATM   43  O23 VFQ S1620     -52.548 146.705  12.665  1.00 22.38    -0.395 OA
ATOM     44  H23 VFQ S1620     -53.468 146.530  12.502  1.00  0.00     0.210 HD
ENDROOT
TORSDOF 12
