REMARK VINA RESULT:    -8.437      1.161     16.425
REMARK INTER + INTRA:         -10.751
REMARK INTER:                 -10.650
REMARK INTRA:                  -0.101
REMARK UNBOUND:                -2.314
REMARK  0 active torsions:
REMARK  status: ('A' for Active; 'I' for Inactive)
REMARK       I    between atoms: C3_3  and  O3_21 
REMARK       I    between atoms: C6_6  and  C7_7 
REMARK       I    between atoms: C8_8  and  C9_9 
REMARK       I    between atoms: C10_10  and  C11_11 
REMARK       I    between atoms: C12_12  and  C13_13 
REMARK       I    between atoms: C14_14  and  C15_15 
REMARK       I    between atoms: C23_25  and  O23_43 
REMARK       I    between atoms: C26_28  and  C27_29 
REMARK       I    between atoms: C28_30  and  C29_31 
REMARK       I    between atoms: C30_32  and  C31_33 
REMARK       I    between atoms: C32_34  and  C33_35 
REMARK       I    between atoms: C34_36  and  C35_37 
ROOT
HETATM    1  C1  VFQ 2 619     -50.299 144.855  10.596  1.00 46.63    -0.018 C 
HETATM    2  C2  VFQ 2 619     -50.281 144.358  12.040  1.00 46.63     0.045 C 
HETATM    3  C3  VFQ 2 619     -49.275 145.058  12.944  1.00 46.63     0.123 C 
HETATM    4  C4  VFQ 2 619     -49.154 146.518  12.544  1.00 46.63     0.066 C 
HETATM    5  C5  VFQ 2 619     -48.604 146.554  11.145  1.00 46.63    -0.074 C 
HETATM    6  C6  VFQ 2 619     -49.102 145.700  10.245  1.00 46.63    -0.048 C 
HETATM    7  C7  VFQ 2 619     -48.313 145.311   9.080  1.00 46.63     0.009 C 
HETATM    8  C8  VFQ 2 619     -47.285 144.582   9.529  1.00 46.63     0.007 C 
HETATM    9  C9  VFQ 2 619     -46.345 143.886   8.617  1.00 46.63    -0.062 C 
HETATM   10  C10 VFQ 2 619     -45.511 142.978   9.155  1.00 46.63     0.007 C 
HETATM   11  C11 VFQ 2 619     -44.576 142.164   8.376  1.00 46.63     0.001 C 
HETATM   12  C12 VFQ 2 619     -43.845 141.233   8.978  1.00 46.63     0.007 C 
HETATM   13  C13 VFQ 2 619     -42.917 140.368   8.221  1.00 46.63    -0.062 C 
HETATM   14  C14 VFQ 2 619     -42.303 139.397   8.918  1.00 46.63     0.007 C 
HETATM   15  C15 VFQ 2 619     -41.361 138.426   8.368  1.00 46.63     0.001 C 
HETATM   16  C16 VFQ 2 619     -51.528 145.727  10.376  1.00 46.63     0.020 C 
HETATM   17  C17 VFQ 2 619     -50.339 143.668   9.644  1.00 46.63     0.020 C 
HETATM   18  C18 VFQ 2 619     -47.373 147.390  10.912  1.00 46.63     0.044 C 
HETATM   19  C19 VFQ 2 619     -46.372 144.179   7.142  1.00 46.63     0.048 C 
HETATM   20  C20 VFQ 2 619     -42.709 140.600   6.752  1.00 46.63     0.048 C 
HETATM   21  O3  VFQ 2 619     -49.715 144.981  14.303  1.00 46.63    -0.395 OA
ATOM     22  H3  VFQ 2 619     -49.087 145.417  14.868  1.00  0.00     0.210 HD
HETATM   23  C21 VFQ 2 619     -34.113 128.239   7.145  1.00 19.54    -0.018 C 
HETATM   24  C22 VFQ 2 619     -33.176 127.523   6.175  1.00 19.54     0.045 C 
HETATM   25  C23 VFQ 2 619     -31.704 127.883   6.185  1.00 19.54     0.123 C 
HETATM   26  C24 VFQ 2 619     -31.548 129.381   6.239  1.00 19.54     0.066 C 
HETATM   27  C25 VFQ 2 619     -32.335 129.968   7.383  1.00 19.54    -0.074 C 
HETATM   28  C26 VFQ 2 619     -33.555 129.525   7.729  1.00 19.54    -0.048 C 
HETATM   29  C27 VFQ 2 619     -34.375 130.260   8.738  1.00 19.54     0.009 C 
HETATM   30  C28 VFQ 2 619     -35.174 131.293   8.438  1.00 19.54     0.007 C 
HETATM   31  C29 VFQ 2 619     -35.980 132.007   9.427  1.00 46.63    -0.062 C 
HETATM   32  C30 VFQ 2 619     -36.765 132.962   8.916  1.00 46.63     0.007 C 
HETATM   33  C31 VFQ 2 619     -37.680 133.801   9.673  1.00 46.63     0.001 C 
HETATM   34  C32 VFQ 2 619     -38.367 134.690   8.966  1.00 46.63     0.007 C 
HETATM   35  C33 VFQ 2 619     -39.326 135.625   9.573  1.00 46.63    -0.062 C 
HETATM   36  C34 VFQ 2 619     -39.901 136.526   8.756  1.00 46.63     0.007 C 
HETATM   37  C35 VFQ 2 619     -40.857 137.533   9.208  1.00 46.63     0.001 C 
HETATM   38  C36 VFQ 2 619     -34.404 127.318   8.321  1.00 19.54     0.020 C 
HETATM   39  C37 VFQ 2 619     -35.408 128.467   6.376  1.00 19.54     0.020 C 
HETATM   40  C38 VFQ 2 619     -31.661 131.077   8.128  1.00 19.54     0.044 C 
HETATM   41  C39 VFQ 2 619     -35.930 131.621  10.874  1.00 46.63     0.048 C 
HETATM   42  C40 VFQ 2 619     -39.591 135.513  11.046  1.00 46.63     0.048 C 
HETATM   43  O23 VFQ 2 619     -31.110 127.414   4.973  1.00 19.54    -0.395 OA
ATOM     44  H23 VFQ 2 619     -31.208 126.470   4.939  1.00  0.00     0.210 HD
ENDROOT
TORSDOF 12
